<?xml version="1.0" encoding="UTF-8"?>

<!-- generated on 2025-08-08 17:26:27 by Eclipse SUMO netedit Version 1.22.0
<neteditConfiguration xmlns:xsi="http://www.w3.org/2001/XMLSchema-instance" xsi:noNamespaceSchemaLocation="http://sumo.dlr.de/xsd/neteditConfiguration.xsd">

    <input>
        <sumo-net-file value="C:\Users\lizhe\Desktop\專題\eclipse-mosaic-25.0\scenarios\ntut\sumo\ntut.net.xml"/>
    </input>

    <output>
        <output-file value="C:\Users\lizhe\Desktop\專題\eclipse-mosaic-25.0\scenarios\ntut\sumo\ntut.net.xml"/>
    </output>

    <processing>
        <geometry.min-radius.fix.railways value="false"/>
        <geometry.max-grade.fix value="false"/>
        <offset.disable-normalization value="true"/>
        <lefthand value="0"/>
    </processing>

    <junctions>
        <no-turnarounds value="true"/>
        <junctions.corner-detail value="5"/>
        <junctions.limit-turn-speed value="5.50"/>
        <rectangular-lane-cut value="0"/>
    </junctions>

    <pedestrian>
        <walkingareas value="0"/>
    </pedestrian>

</neteditConfiguration>
-->

<net version="1.20" junctionCornerDetail="5" limitTurnSpeed="5.50" xmlns:xsi="http://www.w3.org/2001/XMLSchema-instance" xsi:noNamespaceSchemaLocation="http://sumo.dlr.de/xsd/net_file.xsd">

    <location netOffset="-350197.27,-2768498.02" convBoundary="100.35,0.00,2915.29,3697.87" origBoundary="350197.270000,2768498.020000,353112.560000,2772195.890000" projParameter="+proj=utm +zone=51  +ellps=WGS84 +datum=WGS84 +units=m +no_defs"/>

    <edge id=":1140220197_0" function="internal">
        <lane id=":1140220197_0_0" index="0" speed="18.06" length="36.71" shape="242.62,2368.07 253.28,2366.15 260.35,2363.83 267.29,2360.91 277.54,2357.17"/>
        <lane id=":1140220197_0_1" index="1" speed="18.06" length="37.28" shape="243.04,2371.24 253.87,2369.30 261.06,2366.96 268.11,2364.01 278.52,2360.21"/>
        <lane id=":1140220197_0_2" index="2" speed="18.06" length="37.86" shape="243.46,2374.42 254.46,2372.45 261.76,2370.09 268.93,2367.10 279.50,2363.26"/>
        <lane id=":1140220197_0_3" index="3" speed="18.06" length="38.44" shape="243.88,2377.59 255.05,2375.60 262.47,2373.21 269.75,2370.20 280.49,2366.30"/>
    </edge>
    <edge id=":1140220197_4" function="internal">
        <lane id=":1140220197_4_0" index="0" speed="18.06" length="38.34" shape="243.88,2377.59 281.42,2369.78"/>
    </edge>
    <edge id=":1140226515_0" function="internal">
        <lane id=":1140226515_0_0" index="0" speed="18.06" length="0.30" shape="988.27,2163.69 988.59,2163.60"/>
        <lane id=":1140226515_0_1" index="1" speed="18.06" length="0.30" shape="989.13,2166.77 989.43,2166.69"/>
        <lane id=":1140226515_0_2" index="2" speed="18.06" length="0.30" shape="989.99,2169.85 990.27,2169.77"/>
        <lane id=":1140226515_0_3" index="3" speed="18.06" length="0.30" shape="990.85,2172.93 991.10,2172.86"/>
    </edge>
    <edge id=":1140226550_0" function="internal">
        <lane id=":1140226550_0_0" index="0" speed="18.06" length="0.30" shape="1041.05,2185.38 1040.85,2185.44"/>
        <lane id=":1140226550_0_1" index="1" speed="18.06" length="0.30" shape="1040.20,2182.30 1039.94,2182.37"/>
        <lane id=":1140226550_0_2" index="2" speed="18.06" length="0.30" shape="1039.35,2179.21 1039.03,2179.30"/>
        <lane id=":1140226550_0_3" index="3" speed="18.06" length="0.30" shape="1038.50,2176.13 1038.12,2176.24"/>
    </edge>
    <edge id=":1140228862_0" function="internal">
        <lane id=":1140228862_0_0" index="0" speed="18.06" length="0.10" shape="1165.70,2114.27 1165.87,2114.23"/>
        <lane id=":1140228862_0_1" index="1" speed="18.06" length="0.10" shape="1166.56,2117.36 1166.68,2117.32"/>
        <lane id=":1140228862_0_2" index="2" speed="18.06" length="0.10" shape="1167.42,2120.44 1167.49,2120.42"/>
        <lane id=":1140228862_0_3" index="3" speed="18.06" length="0.10" shape="1168.28,2123.52 1168.30,2123.51"/>
    </edge>
    <edge id=":1140228864_0" function="internal">
        <lane id=":1140228864_0_0" index="0" speed="18.06" length="0.25" shape="1209.24,2135.12 1208.85,2135.23"/>
        <lane id=":1140228864_0_1" index="1" speed="18.06" length="0.25" shape="1208.28,2132.07 1208.04,2132.13"/>
        <lane id=":1140228864_0_2" index="2" speed="18.06" length="0.25" shape="1207.31,2129.02 1207.23,2129.04"/>
    </edge>
    <edge id=":11510670762_0" function="internal">
        <lane id=":11510670762_0_0" index="0" speed="13.89" length="1.47" shape="1826.30,2324.87 1827.93,2323.80"/>
        <lane id=":11510670762_0_1" index="1" speed="13.89" length="1.47" shape="1825.60,2321.75 1826.29,2321.06"/>
    </edge>
    <edge id=":12463368425_0" function="internal">
        <lane id=":12463368425_0_0" index="0" speed="13.89" length="0.30" shape="919.53,2531.55 919.46,2531.26"/>
    </edge>
    <edge id=":12463368425_1" function="internal">
        <lane id=":12463368425_1_0" index="0" speed="3.65" length="2.34" shape="919.53,2531.55 920.00,2530.18 920.67,2529.59"/>
    </edge>
    <edge id=":12463368425_4" function="internal">
        <lane id=":12463368425_4_0" index="0" speed="3.65" length="2.34" shape="920.67,2529.59 921.54,2529.77 922.62,2530.72"/>
    </edge>
    <edge id=":12463368425_2" function="internal">
        <lane id=":12463368425_2_0" index="0" speed="13.89" length="0.30" shape="922.55,2530.43 922.62,2530.72"/>
    </edge>
    <edge id=":12463368425_3" function="internal">
        <lane id=":12463368425_3_0" index="0" speed="3.65" length="2.34" shape="922.55,2530.43 922.08,2531.80 921.41,2532.39"/>
    </edge>
    <edge id=":12463368425_5" function="internal">
        <lane id=":12463368425_5_0" index="0" speed="3.65" length="2.34" shape="921.41,2532.39 920.54,2532.21 919.46,2531.26"/>
    </edge>
    <edge id=":1446842446_0" function="internal">
        <lane id=":1446842446_0_0" index="0" speed="16.67" length="14.62" shape="1334.70,1540.43 1329.89,1526.64"/>
        <lane id=":1446842446_0_1" index="1" speed="16.67" length="14.62" shape="1337.73,1539.40 1332.91,1525.58"/>
    </edge>
    <edge id=":1446842446_2" function="internal">
        <lane id=":1446842446_2_0" index="0" speed="6.01" length="9.04" shape="1325.89,1532.84 1328.39,1532.28 1329.90,1531.06 1330.40,1529.18 1329.89,1526.64"/>
        <lane id=":1446842446_2_1" index="1" speed="7.59" length="15.18" shape="1326.23,1536.02 1330.42,1535.08 1332.94,1533.02 1333.76,1529.86 1332.91,1525.58"/>
    </edge>
    <edge id=":1446842464_0" function="internal">
        <lane id=":1446842464_0_0" index="0" speed="7.77" length="4.61" shape="1449.86,1575.90 1445.74,1575.76 1445.31,1575.54"/>
        <lane id=":1446842464_0_1" index="1" speed="6.22" length="4.30" shape="1449.52,1572.72 1446.99,1572.63 1445.41,1571.83"/>
    </edge>
    <edge id=":1446842464_4" function="internal">
        <lane id=":1446842464_4_0" index="0" speed="7.77" length="10.15" shape="1445.31,1575.54 1442.84,1574.29 1441.16,1571.51 1440.70,1567.40"/>
        <lane id=":1446842464_4_1" index="0" speed="6.22" length="4.75" shape="1445.41,1571.83 1445.21,1571.73 1444.18,1570.03 1443.90,1567.51"/>
    </edge>
    <edge id=":1446842464_2" function="internal">
        <lane id=":1446842464_2_0" index="0" speed="8.33" length="14.48" shape="1440.31,1581.89 1440.70,1567.40"/>
        <lane id=":1446842464_2_1" index="1" speed="8.33" length="14.48" shape="1443.51,1581.97 1443.90,1567.51"/>
    </edge>
    <edge id=":1446842467_0" function="internal">
        <lane id=":1446842467_0_0" index="0" speed="8.33" length="14.52" shape="1722.13,1567.99 1736.68,1567.23"/>
        <lane id=":1446842467_0_1" index="1" speed="8.33" length="14.52" shape="1722.38,1571.18 1736.82,1570.43"/>
    </edge>
    <edge id=":1446842467_2" function="internal">
        <lane id=":1446842467_2_0" index="0" speed="7.21" length="11.83" shape="1722.38,1571.18 1726.27,1571.24 1729.06,1572.13 1730.76,1573.83 1731.37,1576.36"/>
        <lane id=":1446842467_2_1" index="1" speed="6.38" length="9.04" shape="1722.38,1571.18 1724.87,1571.34 1726.66,1572.27 1727.76,1573.96 1728.17,1576.43"/>
    </edge>
    <edge id=":1446842468_0" function="internal">
        <lane id=":1446842468_0_0" index="0" speed="13.89" length="9.09" shape="1054.20,1572.15 1056.54,1580.68"/>
        <lane id=":1446842468_0_1" index="1" speed="13.89" length="9.09" shape="1051.11,1572.95 1053.47,1581.57"/>
        <lane id=":1446842468_0_2" index="2" speed="13.89" length="9.09" shape="1048.01,1573.75 1050.40,1582.47"/>
        <lane id=":1446842468_0_3" index="3" speed="13.89" length="9.09" shape="1044.91,1574.54 1047.33,1583.36"/>
        <lane id=":1446842468_0_4" index="4" speed="13.89" length="9.09" shape="1041.81,1575.34 1044.25,1584.26"/>
        <lane id=":1446842468_0_5" index="5" speed="13.89" length="9.09" shape="1038.71,1576.14 1041.18,1585.15"/>
    </edge>
    <edge id=":1446842468_6" function="internal">
        <lane id=":1446842468_6_0" index="0" speed="6.10" length="7.71" shape="1038.71,1576.14 1039.21,1578.85 1039.15,1580.90 1038.53,1582.29 1037.35,1583.02"/>
    </edge>
    <edge id=":1446842468_7" function="internal">
        <lane id=":1446842468_7_0" index="0" speed="7.65" length="12.75" shape="1036.50,1579.94 1040.59,1579.21 1043.75,1579.54 1046.00,1580.92 1047.33,1583.36"/>
        <lane id=":1446842468_7_1" index="1" speed="6.87" length="10.09" shape="1036.50,1579.94 1039.24,1579.58 1041.44,1580.19 1043.11,1581.74 1044.25,1584.26"/>
        <lane id=":1446842468_7_2" index="2" speed="6.10" length="7.72" shape="1036.50,1579.94 1037.89,1579.96 1039.13,1580.84 1040.23,1582.57 1041.18,1585.15"/>
    </edge>
    <edge id=":1446842468_10" function="internal">
        <lane id=":1446842468_10_0" index="0" speed="3.65" length="4.67" shape="1036.50,1579.94 1037.87,1580.39 1038.47,1581.05 1038.30,1581.93 1037.35,1583.02"/>
    </edge>
    <edge id=":1446842472_0" function="internal">
        <lane id=":1446842472_0_0" index="0" speed="5.87" length="8.55" shape="1674.42,1579.21 1674.21,1577.36 1675.05,1575.95 1676.92,1575.01 1679.83,1574.51"/>
    </edge>
    <edge id=":1446842472_1" function="internal">
        <lane id=":1446842472_1_0" index="0" speed="3.65" length="4.67" shape="1674.42,1579.21 1674.78,1577.82 1675.40,1577.18 1676.29,1577.29 1677.44,1578.16"/>
    </edge>
    <edge id=":1446842472_2" function="internal">
        <lane id=":1446842472_2_0" index="0" speed="8.33" length="9.58" shape="1670.05,1571.98 1679.58,1571.32"/>
        <lane id=":1446842472_2_1" index="1" speed="8.33" length="9.58" shape="1670.25,1575.18 1679.83,1574.51"/>
    </edge>
    <edge id=":1446842472_4" function="internal">
        <lane id=":1446842472_4_0" index="0" speed="6.99" length="8.35" shape="1670.25,1575.18 1672.96,1575.23 1675.06,1575.74 1676.55,1576.72 1677.44,1578.16"/>
    </edge>
    <edge id=":1446842473_0" function="internal">
        <lane id=":1446842473_0_0" index="0" speed="6.66" length="8.99" shape="1352.79,1593.49 1351.69,1591.38 1350.13,1590.09 1348.11,1589.60 1345.62,1589.92"/>
        <lane id=":1446842473_0_1" index="1" speed="7.48" length="11.62" shape="1352.79,1593.49 1351.25,1590.05 1349.38,1587.80 1347.20,1586.74 1344.70,1586.86"/>
    </edge>
    <edge id=":1446842473_2" function="internal">
        <lane id=":1446842473_2_0" index="0" speed="16.67" length="14.10" shape="1352.79,1593.49 1348.22,1580.14"/>
        <lane id=":1446842473_2_1" index="1" speed="16.67" length="14.10" shape="1355.81,1592.45 1351.25,1579.11"/>
    </edge>
    <edge id=":1446842479_0" function="internal">
        <lane id=":1446842479_0_0" index="0" speed="6.08" length="7.75" shape="1093.89,1599.00 1093.82,1597.60 1094.62,1596.30 1096.28,1595.10 1098.82,1594.01"/>
    </edge>
    <edge id=":1446842479_1" function="internal">
        <lane id=":1446842479_1_0" index="0" speed="3.65" length="4.67" shape="1093.89,1599.00 1094.25,1597.61 1094.88,1596.97 1095.76,1597.09 1096.91,1597.96"/>
    </edge>
    <edge id=":1446842479_2" function="internal">
        <lane id=":1446842479_2_0" index="0" speed="8.33" length="9.30" shape="1088.99,1593.89 1097.77,1590.99"/>
        <lane id=":1446842479_2_1" index="1" speed="8.33" length="9.30" shape="1089.95,1596.95 1098.82,1594.01"/>
    </edge>
    <edge id=":1446842479_4" function="internal">
        <lane id=":1446842479_4_0" index="0" speed="6.14" length="7.73" shape="1089.95,1596.95 1092.62,1596.31 1094.67,1596.27 1096.10,1596.82 1096.91,1597.96"/>
    </edge>
    <edge id=":1446842482_0" function="internal">
        <lane id=":1446842482_0_0" index="0" speed="5.92" length="9.11" shape="1556.10,1585.16 1555.01,1587.56 1555.09,1589.48 1556.34,1590.94 1558.78,1591.93"/>
    </edge>
    <edge id=":1446842482_1" function="internal">
        <lane id=":1446842482_1_0" index="0" speed="8.33" length="22.40" shape="1553.43,1583.41 1549.39,1588.43 1544.91,1591.57 1539.99,1592.85 1534.63,1592.26"/>
    </edge>
    <edge id=":1446842482_2" function="internal">
        <lane id=":1446842482_2_0" index="0" speed="6.52" length="9.03" shape="1537.74,1602.23 1538.03,1599.77 1537.47,1597.81 1536.05,1596.33 1533.78,1595.35"/>
    </edge>
    <edge id=":1446842482_3" function="internal">
        <lane id=":1446842482_3_0" index="0" speed="8.33" length="21.48" shape="1540.83,1603.05 1543.05,1598.22 1546.66,1595.28 1551.64,1594.22 1558.00,1595.03"/>
    </edge>
    <edge id=":1446842488_0" function="internal">
        <lane id=":1446842488_0_0" index="0" speed="6.50" length="9.03" shape="1281.27,1612.94 1280.28,1610.67 1278.81,1609.26 1276.84,1608.72 1274.39,1609.04"/>
    </edge>
    <edge id=":1446842488_1" function="internal">
        <lane id=":1446842488_1_0" index="0" speed="3.65" length="4.67" shape="1281.27,1612.94 1281.73,1611.57 1282.39,1610.98 1283.27,1611.15 1284.36,1612.10"/>
    </edge>
    <edge id=":1446842488_2" function="internal">
        <lane id=":1446842488_2_0" index="0" speed="6.49" length="9.03" shape="1288.29,1605.24 1286.02,1606.21 1284.60,1607.68 1284.05,1609.64 1284.36,1612.10"/>
    </edge>
    <edge id=":1446842488_3" function="internal">
        <lane id=":1446842488_3_0" index="0" speed="8.33" length="14.44" shape="1288.29,1605.24 1274.39,1609.04"/>
        <lane id=":1446842488_3_1" index="1" speed="8.33" length="14.44" shape="1287.47,1602.15 1273.52,1605.96"/>
    </edge>
    <edge id=":1446842490_0" function="internal">
        <lane id=":1446842490_0_0" index="0" speed="3.65" length="4.67" shape="1100.14,1607.31 1099.78,1608.70 1099.15,1609.34 1098.27,1609.23 1097.12,1608.35"/>
    </edge>
    <edge id=":1446842491_0" function="internal">
        <lane id=":1446842491_0_0" index="0" speed="6.46" length="9.01" shape="1061.21,1596.67 1062.23,1598.93 1063.73,1600.31 1065.69,1600.80 1068.13,1600.41"/>
        <lane id=":1446842491_0_1" index="1" speed="7.27" length="11.71" shape="1061.21,1596.67 1062.62,1600.27 1064.40,1602.61 1066.54,1603.68 1069.04,1603.48"/>
    </edge>
    <edge id=":1446842491_2" function="internal">
        <lane id=":1446842491_2_0" index="0" speed="13.89" length="14.29" shape="1061.21,1596.67 1065.19,1610.49"/>
        <lane id=":1446842491_2_1" index="1" speed="13.89" length="14.29" shape="1058.13,1597.57 1062.11,1611.35"/>
        <lane id=":1446842491_2_2" index="2" speed="13.89" length="14.29" shape="1055.06,1598.46 1059.03,1612.21"/>
        <lane id=":1446842491_2_3" index="3" speed="13.89" length="14.29" shape="1051.99,1599.36 1055.94,1613.07"/>
        <lane id=":1446842491_2_4" index="4" speed="13.89" length="14.29" shape="1048.92,1600.25 1052.86,1613.93"/>
        <lane id=":1446842491_2_5" index="5" speed="13.89" length="14.29" shape="1045.85,1601.15 1049.78,1614.79"/>
    </edge>
    <edge id=":1446842493_0" function="internal">
        <lane id=":1446842493_0_0" index="0" speed="6.54" length="9.31" shape="1602.12,1602.74 1604.65,1603.00 1606.64,1602.37 1608.09,1600.85 1609.00,1598.44"/>
    </edge>
    <edge id=":1446842493_1" function="internal">
        <lane id=":1446842493_1_0" index="0" speed="8.33" length="14.12" shape="1602.12,1602.74 1615.79,1605.88"/>
        <lane id=":1446842493_1_1" index="1" speed="8.33" length="14.12" shape="1601.34,1605.85 1615.20,1609.03"/>
    </edge>
    <edge id=":1446842493_3" function="internal">
        <lane id=":1446842493_3_0" index="0" speed="8.33" length="13.90" shape="1605.07,1612.12 1609.00,1598.44"/>
        <lane id=":1446842493_3_1" index="1" speed="8.33" length="13.90" shape="1608.21,1612.77 1611.99,1599.73"/>
    </edge>
    <edge id=":1446842493_5" function="internal">
        <lane id=":1446842493_5_0" index="0" speed="6.53" length="3.73" shape="1608.21,1612.77 1609.02,1610.71 1610.15,1609.69"/>
    </edge>
    <edge id=":1446842493_6" function="internal">
        <lane id=":1446842493_6_0" index="0" speed="6.53" length="5.24" shape="1610.15,1609.69 1610.46,1609.40 1612.52,1608.84 1615.20,1609.03"/>
    </edge>
    <edge id=":1446842496_0" function="internal">
        <lane id=":1446842496_0_0" index="0" speed="3.90" length="2.59" shape="1645.56,1611.47 1646.27,1611.50 1646.82,1611.29 1647.21,1610.85 1647.43,1610.18"/>
        <lane id=":1446842496_0_1" index="1" speed="6.08" length="7.78" shape="1644.97,1614.61 1647.11,1614.70 1648.75,1614.09 1649.91,1612.77 1650.58,1610.75"/>
    </edge>
    <edge id=":1446842497_0" function="internal">
        <lane id=":1446842497_0_0" index="0" speed="8.33" length="0.30" shape="864.10,1630.99 863.81,1631.07"/>
    </edge>
    <edge id=":1446842497_1" function="internal">
        <lane id=":1446842497_1_0" index="0" speed="3.65" length="2.34" shape="864.10,1630.99 862.72,1630.54 862.12,1629.88"/>
    </edge>
    <edge id=":1446842497_4" function="internal">
        <lane id=":1446842497_4_0" index="0" speed="3.65" length="2.34" shape="862.12,1629.88 862.29,1629.00 863.23,1627.91"/>
    </edge>
    <edge id=":1446842497_2" function="internal">
        <lane id=":1446842497_2_0" index="0" speed="8.33" length="0.30" shape="862.95,1627.99 863.23,1627.91"/>
    </edge>
    <edge id=":1446842497_3" function="internal">
        <lane id=":1446842497_3_0" index="0" speed="3.65" length="2.34" shape="862.95,1627.99 864.32,1628.44 864.92,1629.10"/>
    </edge>
    <edge id=":1446842497_5" function="internal">
        <lane id=":1446842497_5_0" index="0" speed="3.65" length="2.34" shape="864.92,1629.10 864.75,1629.98 863.81,1631.07"/>
    </edge>
    <edge id=":1446842498_0" function="internal">
        <lane id=":1446842498_0_0" index="0" speed="6.41" length="9.04" shape="1397.61,1628.26 1395.34,1629.29 1393.99,1630.80 1393.55,1632.77 1394.01,1635.22"/>
        <lane id=":1446842498_0_1" index="1" speed="7.92" length="14.38" shape="1396.71,1625.19 1393.10,1626.83 1390.95,1629.23 1390.24,1632.37 1390.99,1636.26"/>
    </edge>
    <edge id=":1446842498_2" function="internal">
        <lane id=":1446842498_2_0" index="0" speed="16.67" length="14.47" shape="1389.36,1621.56 1394.01,1635.22"/>
        <lane id=":1446842498_2_1" index="1" speed="16.67" length="14.47" shape="1386.32,1622.56 1390.99,1636.26"/>
        <lane id=":1446842498_2_2" index="2" speed="16.67" length="14.47" shape="1383.28,1623.57 1387.96,1637.31"/>
    </edge>
    <edge id=":1446842500_0" function="internal">
        <lane id=":1446842500_0_0" index="0" speed="16.67" length="14.44" shape="1366.94,1635.15 1362.37,1621.46"/>
        <lane id=":1446842500_0_1" index="1" speed="16.67" length="14.44" shape="1369.98,1634.16 1365.41,1620.46"/>
    </edge>
    <edge id=":1446842500_2" function="internal">
        <lane id=":1446842500_2_0" index="0" speed="6.40" length="9.06" shape="1358.66,1628.37 1360.97,1627.35 1362.36,1625.85 1362.83,1623.89 1362.37,1621.46"/>
        <lane id=":1446842500_2_1" index="1" speed="7.94" length="14.52" shape="1359.38,1631.49 1363.11,1629.85 1365.36,1627.46 1366.13,1624.33 1365.41,1620.46"/>
    </edge>
    <edge id=":1446842502_0" function="internal">
        <lane id=":1446842502_0_0" index="0" speed="6.47" length="9.03" shape="1159.77,1647.05 1158.77,1644.78 1157.28,1643.39 1155.31,1642.88 1152.85,1643.25"/>
        <lane id=":1446842502_0_1" index="1" speed="7.97" length="14.25" shape="1162.85,1646.17 1161.26,1642.60 1158.91,1640.41 1155.80,1639.60 1151.93,1640.19"/>
    </edge>
    <edge id=":1446842502_2" function="internal">
        <lane id=":1446842502_2_0" index="0" speed="8.33" length="14.46" shape="1166.69,1639.17 1152.85,1643.25"/>
        <lane id=":1446842502_2_1" index="1" speed="8.33" length="14.46" shape="1165.83,1636.09 1151.93,1640.19"/>
    </edge>
    <edge id=":1446842503_0" function="internal">
        <lane id=":1446842503_0_0" index="0" speed="8.33" length="0.30" shape="819.43,1643.47 819.14,1643.54"/>
    </edge>
    <edge id=":1446842503_1" function="internal">
        <lane id=":1446842503_1_0" index="0" speed="3.65" length="2.34" shape="819.43,1643.47 818.06,1643.02 817.46,1642.36"/>
    </edge>
    <edge id=":1446842503_4" function="internal">
        <lane id=":1446842503_4_0" index="0" speed="3.65" length="2.34" shape="817.46,1642.36 817.63,1641.48 818.57,1640.39"/>
    </edge>
    <edge id=":1446842503_2" function="internal">
        <lane id=":1446842503_2_0" index="0" speed="8.33" length="0.20" shape="818.37,1640.44 818.57,1640.39"/>
    </edge>
    <edge id=":1446842503_3" function="internal">
        <lane id=":1446842503_3_0" index="0" speed="3.65" length="2.34" shape="818.37,1640.44 819.73,1640.93 820.31,1641.61"/>
    </edge>
    <edge id=":1446842503_5" function="internal">
        <lane id=":1446842503_5_0" index="0" speed="3.65" length="2.34" shape="820.31,1641.61 820.11,1642.48 819.14,1643.54"/>
    </edge>
    <edge id=":1446842505_0" function="internal">
        <lane id=":1446842505_0_0" index="0" speed="8.33" length="14.44" shape="1293.14,1656.12 1289.29,1642.20"/>
    </edge>
    <edge id=":1446842505_1" function="internal">
        <lane id=":1446842505_1_0" index="0" speed="7.34" length="11.78" shape="1293.14,1656.12 1293.00,1653.61 1294.13,1651.48 1296.50,1649.71 1300.14,1648.32"/>
    </edge>
    <edge id=":1446842505_2" function="internal">
        <lane id=":1446842505_2_0" index="0" speed="3.65" length="4.67" shape="1293.14,1656.12 1293.58,1654.75 1294.24,1654.15 1295.12,1654.31 1296.22,1655.25"/>
    </edge>
    <edge id=":1446842505_3" function="internal">
        <lane id=":1446842505_3_0" index="0" speed="6.49" length="9.03" shape="1292.38,1641.36 1293.36,1643.63 1294.84,1645.04 1296.81,1645.57 1299.26,1645.24"/>
    </edge>
    <edge id=":1446842505_4" function="internal">
        <lane id=":1446842505_4_0" index="0" speed="8.33" length="14.41" shape="1292.38,1641.36 1296.22,1655.25"/>
    </edge>
    <edge id=":1446842505_5" function="internal">
        <lane id=":1446842505_5_0" index="0" speed="3.65" length="4.67" shape="1292.38,1641.36 1291.92,1642.73 1291.26,1643.32 1290.38,1643.15 1289.29,1642.20"/>
    </edge>
    <edge id=":1446842505_6" function="internal">
        <lane id=":1446842505_6_0" index="0" speed="6.53" length="9.09" shape="1285.37,1649.15 1287.64,1648.15 1289.05,1646.66 1289.60,1644.68 1289.29,1642.20"/>
    </edge>
    <edge id=":1446842505_7" function="internal">
        <lane id=":1446842505_7_0" index="0" speed="8.33" length="14.44" shape="1285.37,1649.15 1299.26,1645.24"/>
        <lane id=":1446842505_7_1" index="1" speed="8.33" length="14.44" shape="1286.22,1652.23 1300.14,1648.32"/>
    </edge>
    <edge id=":1446842505_9" function="internal">
        <lane id=":1446842505_9_0" index="0" speed="7.34" length="11.73" shape="1286.22,1652.23 1290.03,1651.53 1292.96,1651.81 1295.02,1653.04 1296.22,1655.25"/>
    </edge>
    <edge id=":1446842509_0" function="internal">
        <lane id=":1446842509_0_0" index="0" speed="6.57" length="9.08" shape="1085.52,1663.50 1083.25,1664.54 1081.85,1666.05 1081.30,1668.03 1081.62,1670.48"/>
        <lane id=":1446842509_0_1" index="1" speed="8.08" length="14.26" shape="1084.72,1660.40 1081.14,1662.04 1078.92,1664.41 1078.05,1667.51 1078.53,1671.33"/>
        <lane id=":1446842509_0_2" index="2" speed="8.75" length="16.89" shape="1084.72,1660.40 1079.80,1662.44 1076.61,1665.08 1075.16,1668.33 1075.45,1672.19"/>
        <lane id=":1446842509_0_3" index="3" speed="9.40" length="19.63" shape="1084.72,1660.40 1078.46,1662.84 1074.31,1665.76 1072.28,1669.16 1072.36,1673.04"/>
    </edge>
    <edge id=":1446842509_4" function="internal">
        <lane id=":1446842509_4_0" index="0" speed="13.89" length="14.48" shape="1077.80,1656.58 1081.62,1670.48"/>
        <lane id=":1446842509_4_1" index="1" speed="13.89" length="14.48" shape="1074.71,1657.41 1078.53,1671.33"/>
        <lane id=":1446842509_4_2" index="2" speed="13.89" length="14.48" shape="1071.62,1658.23 1075.45,1672.19"/>
        <lane id=":1446842509_4_3" index="3" speed="13.89" length="14.48" shape="1068.53,1659.06 1072.36,1673.04"/>
        <lane id=":1446842509_4_4" index="4" speed="13.89" length="14.48" shape="1065.44,1659.89 1069.28,1673.90"/>
        <lane id=":1446842509_4_5" index="5" speed="13.89" length="14.48" shape="1062.35,1660.72 1066.20,1674.75"/>
    </edge>
    <edge id=":1446842513_0" function="internal">
        <lane id=":1446842513_0_0" index="0" speed="5.57" length="5.81" shape="1169.63,1681.91 1169.82,1681.03 1169.31,1679.39 1168.58,1677.65 1168.09,1676.44"/>
        <lane id=":1446842513_0_1" index="1" speed="6.11" length="7.18" shape="1169.63,1681.91 1170.85,1681.06 1171.51,1679.72 1171.62,1677.89 1171.17,1675.57"/>
    </edge>
    <edge id=":1446842513_2" function="internal">
        <lane id=":1446842513_2_0" index="0" speed="8.33" length="8.26" shape="1169.63,1681.91 1171.95,1680.97 1173.56,1680.36 1175.19,1679.84 1177.60,1679.15"/>
        <lane id=":1446842513_2_1" index="1" speed="8.33" length="8.26" shape="1170.83,1684.88 1173.05,1683.98 1174.59,1683.39 1176.15,1682.89 1178.46,1682.24"/>
    </edge>
    <edge id=":1446842514_0" function="internal">
        <lane id=":1446842514_0_0" index="0" speed="6.80" length="9.17" shape="1088.35,1694.79 1089.33,1697.03 1090.83,1698.49 1092.83,1699.18 1095.35,1699.10"/>
    </edge>
    <edge id=":1446842514_1" function="internal">
        <lane id=":1446842514_1_0" index="0" speed="13.89" length="16.83" shape="1088.35,1694.79 1092.84,1711.01"/>
        <lane id=":1446842514_1_1" index="1" speed="13.89" length="16.83" shape="1085.27,1695.64 1089.76,1711.87"/>
        <lane id=":1446842514_1_2" index="2" speed="13.89" length="16.83" shape="1082.18,1696.50 1086.67,1712.72"/>
        <lane id=":1446842514_1_3" index="3" speed="13.89" length="16.83" shape="1079.10,1697.35 1083.59,1713.57"/>
        <lane id=":1446842514_1_4" index="4" speed="13.89" length="16.83" shape="1076.02,1698.21 1080.50,1714.42"/>
        <lane id=":1446842514_1_5" index="5" speed="13.89" length="16.83" shape="1072.93,1699.06 1077.42,1715.27"/>
    </edge>
    <edge id=":1446842514_7" function="internal">
        <lane id=":1446842514_7_0" index="0" speed="7.91" length="13.87" shape="1072.93,1699.06 1073.91,1703.89 1073.83,1707.55 1072.69,1710.04 1070.51,1711.36"/>
    </edge>
    <edge id=":1446842514_8" function="internal">
        <lane id=":1446842514_8_0" index="0" speed="8.33" length="27.29" shape="1069.67,1708.27 1074.33,1706.52 1080.62,1703.82 1087.85,1701.05 1095.35,1699.10"/>
        <lane id=":1446842514_8_1" index="1" speed="8.33" length="27.29" shape="1069.67,1708.27 1074.47,1707.00 1081.06,1705.36 1088.60,1703.66 1096.24,1702.19"/>
    </edge>
    <edge id=":1446842514_10" function="internal">
        <lane id=":1446842514_10_0" index="0" speed="8.68" length="16.85" shape="1069.67,1708.27 1074.88,1707.42 1078.94,1708.02 1081.84,1710.07 1083.59,1713.57"/>
        <lane id=":1446842514_10_1" index="1" speed="8.01" length="14.20" shape="1069.67,1708.27 1073.53,1707.79 1076.62,1708.65 1078.95,1710.86 1080.50,1714.42"/>
        <lane id=":1446842514_10_2" index="2" speed="7.34" length="11.74" shape="1069.67,1708.27 1072.18,1708.16 1074.31,1709.29 1076.06,1711.66 1077.42,1715.27"/>
    </edge>
    <edge id=":1446842514_13" function="internal">
        <lane id=":1446842514_13_0" index="0" speed="3.65" length="4.67" shape="1069.67,1708.27 1071.04,1708.73 1071.63,1709.40 1071.46,1710.27 1070.51,1711.36"/>
    </edge>
    <edge id=":1446842515_0" function="internal">
        <lane id=":1446842515_0_0" index="0" speed="7.53" length="12.33" shape="1511.92,1761.59 1510.66,1759.30 1508.48,1758.01 1505.38,1757.73 1501.37,1758.45"/>
    </edge>
    <edge id=":1446842515_1" function="internal">
        <lane id=":1446842515_1_0" index="0" speed="8.33" length="15.21" shape="1511.92,1761.59 1510.50,1758.51 1508.53,1755.89 1506.30,1752.83 1504.14,1748.43"/>
        <lane id=":1446842515_1_1" index="1" speed="8.33" length="15.21" shape="1511.92,1761.59 1507.14,1747.30"/>
    </edge>
    <edge id=":1446842515_3" function="internal">
        <lane id=":1446842515_3_0" index="0" speed="7.98" length="14.24" shape="1511.92,1761.59 1511.38,1757.72 1512.22,1754.62 1514.43,1752.29 1518.01,1750.73"/>
    </edge>
    <edge id=":1446842515_4" function="internal">
        <lane id=":1446842515_4_0" index="0" speed="3.65" length="4.67" shape="1511.92,1761.59 1512.35,1760.22 1513.01,1759.61 1513.89,1759.77 1514.99,1760.70"/>
    </edge>
    <edge id=":1446842515_5" function="internal">
        <lane id=":1446842515_5_0" index="0" speed="6.48" length="9.03" shape="1518.86,1753.81 1516.58,1754.80 1515.18,1756.28 1514.65,1758.25 1514.99,1760.70"/>
    </edge>
    <edge id=":1446842515_6" function="internal">
        <lane id=":1446842515_6_0" index="0" speed="13.89" length="18.09" shape="1518.86,1753.81 1501.37,1758.45"/>
    </edge>
    <edge id=":1446842515_7" function="internal">
        <lane id=":1446842515_7_0" index="0" speed="8.50" length="4.08" shape="1518.86,1753.81 1514.98,1754.27 1514.81,1754.22"/>
    </edge>
    <edge id=":1446842515_8" function="internal">