<nodes>
	<node id="1140217849" x="350197.27" y="2770961.69" z="0.00" type="traffic_light" />
	<node id="1140220197" x="350444.35" y="2770876.80" z="0.00" type="priority" />
	<node id="1140220198" x="350452.31" y="2770889.34" z="0.00" type="traffic_light" />
	<node id="1140226515" x="351188.67" y="2770672.46" z="0.00" type="traffic_light" />
	<node id="1140226550" x="351235.14" y="2770672.66" z="0.00" type="traffic_light" />
	<node id="1140228862" x="351365.98" y="2770623.08" z="0.00" type="traffic_light" />
	<node id="1140228864" x="351404.10" y="2770625.51" z="0.00" type="traffic_light" />
	<node id="11510670762" x="352021.52" y="2770818.43" z="0.00" type="priority" />
	<node id="12463368425" x="351118.31" y="2771029.01" z="0.00" type="traffic_light" />
	<node id="1446842446" x="351535.69" y="2770034.48" z="0.00" type="priority" />
	<node id="1446842458" x="351813.97" y="2770055.10" z="0.00" type="priority" />
	<node id="1446842459" x="351765.17" y="2770055.89" z="0.00" type="priority" />
	<node id="1446842464" x="351642.64" y="2770069.58" z="0.00" type="priority" />
	<node id="1446842467" x="351923.76" y="2770070.48" z="0.00" type="priority" />
	<node id="1446842468" x="351235.60" y="2770079.11" z="0.00" type="priority" />
	<node id="1446842472" x="351872.43" y="2770074.50" z="0.00" type="priority" />
	<node id="1446842473" x="351551.35" y="2770080.48" z="0.00" type="priority" />
	<node id="1446842479" x="351292.18" y="2770095.09" z="0.00" type="priority" />
	<node id="1446842482" x="351742.31" y="2770091.47" z="0.00" type="priority" />
	<node id="1446842488" x="351477.33" y="2770100.49" z="0.00" type="priority" />
	<node id="1446842490" x="351295.90" y="2770105.85" z="0.00" type="priority" />
	<node id="1446842491" x="351244.56" y="2770109.84" z="0.00" type="priority" />
	<node id="1446842493" x="351807.73" y="2770107.79" z="0.00" type="priority" />
	<node id="1446842496" x="351848.28" y="2770115.39" z="0.00" type="priority" />
	<node id="1446842497" x="351060.79" y="2770127.51" z="0.00" type="traffic_light" />
	<node id="1446842498" x="351580.18" y="2770125.58" z="0.00" type="traffic_light" />
	<node id="1446842500" x="351567.71" y="2770128.41" z="0.00" type="traffic_light" />
	<node id="1446842502" x="351358.80" y="2770133.65" z="0.00" type="priority" />
	<node id="1446842503" x="351016.15" y="2770139.98" z="0.00" type="priority" />
	<node id="1446842505" x="351490.86" y="2770149.86" z="0.00" type="priority" />
	<node id="1446842509" x="351259.18" y="2770163.29" z="0.00" type="priority" />
	<node id="1446842513" x="351372.70" y="2770182.76" z="0.00" type="priority" />
	<node id="1446842514" x="351271.23" y="2770206.78" z="0.00" type="traffic_light" />
	<node id="1446842515" x="351708.72" y="2770252.21" z="0.00" type="priority" />
	<node id="1446842516" x="351532.53" y="2770299.70" z="0.00" type="priority" />
	<node id="1466455165" x="350524.45" y="2770107.47" z="0.00" type="traffic_light" />
	<node id="1466455170" x="350525.95" y="2770120.02" z="0.00" type="traffic_light" />
	<node id="1466455178" x="350466.35" y="2770144.29" z="0.00" type="traffic_light" />
	<node id="1505012036" x="350585.71" y="2770577.64" z="0.00" type="traffic_light" />
	<node id="1505012053" x="350622.35" y="2770708.80" z="0.00" type="traffic_light" />
	<node id="1505012056" x="350534.82" y="2770423.82" z="0.00" type="traffic_light" />
	<node id="1505012059" x="350614.44" y="2770711.81" z="0.00" type="traffic_light" />
	<node id="1505012062" x="350631.42" y="2770674.72" z="0.00" type="traffic_light" />
	<node id="1505012094" x="350609.59" y="2770823.41" z="0.00" type="priority" />
	<node id="1505012111" x="350543.52" y="2770421.33" z="0.00" type="traffic_light" />
	<node id="1505012119" x="350593.00" y="2770538.61" z="0.00" type="traffic_light" />
	<node id="1505012123" x="350583.20" y="2770541.14" z="0.00" type="traffic_light" />
	<node id="1505012124" x="350630.59" y="2770772.95" z="0.00" type="priority" />
	<node id="1505012127" x="350457.01" y="2770146.49" z="0.00" type="traffic_light" />
	<node id="1512685967" x="352464.79" y="2770256.21" z="0.00" type="priority" />
	<node id="1512685982" x="352438.12" y="2770293.54" z="0.00" type="priority" />
	<node id="1512685995" x="352480.27" y="2770025.09" z="0.00" type="priority" />
	<node id="1512685996" x="352509.69" y="2770014.27" z="0.00" type="priority" />
	<node id="1720485436" x="350962.31" y="2770458.47" z="0.00" type="traffic_light" />
	<node id="1720485444" x="350853.67" y="2770067.89" z="0.00" type="traffic_light" />
	<node id="1720485456" x="350998.39" y="2770591.59" z="0.00" type="traffic_light" />
	<node id="1720485460" x="350916.68" y="2770304.82" z="0.00" type="traffic_light" />
	<node id="1926948273" x="351635.53" y="2770469.20" z="0.00" type="priority" />
	<node id="1926948285" x="350794.15" y="2770503.90" z="0.00" type="traffic_light" />
	<node id="1926948289" x="351363.66" y="2770347.73" z="0.00" type="priority" />
	<node id="1926948313" x="351670.12" y="2770495.68" z="0.00" type="priority" />
	<node id="1926948337" x="351690.86" y="2770491.47" z="0.00" type="priority" />
	<node id="1973482483" x="351861.52" y="2770210.66" z="0.00" type="priority" />
	<node id="1973482489" x="351915.29" y="2770450.66" z="0.00" type="priority" />
	<node id="2013717671" x="352509.08" y="2770188.68" z="0.00" type="traffic_light" />
	<node id="2013717679" x="351978.98" y="2770289.94" z="0.00" type="priority" />
	<node id="2031882172" x="350881.69" y="2770173.11" z="0.00" type="traffic_light" />
	<node id="2034292613" x="350776.73" y="2770793.65" z="0.00" type="priority" />
	<node id="2034292619" x="350846.12" y="2770766.41" z="0.00" type="priority" />
	<node id="2038168688" x="351776.66" y="2770495.59" z="0.00" type="traffic_light" />
	<node id="2051219340" x="350297.62" y="2770340.98" z="0.00" type="traffic_light" />
	<node id="2081945232" x="351485.64" y="2770375.41" z="0.00" type="priority" />
	<node id="2081945236" x="351665.32" y="2770478.28" z="0.00" type="priority" />
	<node id="2081945246" x="351480.36" y="2770531.34" z="0.00" type="priority" />
	<node id="2081945250" x="351369.51" y="2770562.41" z="0.00" type="priority" />
	<node id="2178660131" x="351731.98" y="2770130.29" z="0.00" type="priority" />
	<node id="2178660132" x="351677.21" y="2770145.45" z="0.00" type="priority" />
	<node id="2178660133" x="351800.22" y="2770144.23" z="0.00" type="priority" />
	<node id="2178660134" x="351925.76" y="2770172.27" z="0.00" type="priority" />
	<node id="2178660135" x="351594.71" y="2770167.69" z="0.00" type="priority" />
	<node id="2178660136" x="351796.00" y="2770165.57" z="0.00" type="priority" />
	<node id="2178660137" x="351691.36" y="2770194.57" z="0.00" type="priority" />
	<node id="2178660138" x="351611.08" y="2770216.38" z="0.00" type="priority" />
	<node id="2178660139" x="351812.55" y="2770223.68" z="0.00" type="traffic_light" />
	<node id="244380192" x="350577.20" y="2770579.45" z="0.00" type="traffic_light" />
	<node id="2444664369" x="352239.14" y="2770401.45" z="0.00" type="traffic_light" />
	<node id="2444664370" x="352000.88" y="2770579.33" z="0.00" type="priority" />
	<node id="2461138530" x="352869.27" y="2770938.48" z="0.00" type="traffic_light" />
	<node id="2462876030" x="352876.57" y="2770344.56" z="0.00" type="traffic_light" />
	<node id="2527532992" x="352772.79" y="2770913.26" z="0.00" type="traffic_light" />
	<node id="2528018119" x="351990.63" y="2770662.02" z="0.00" type="traffic_light" />
	<node id="25423625" x="353098.11" y="2770716.65" z="0.00" type="traffic_light" />
	<node id="2575216309" x="351371.39" y="2770183.29" z="0.00" type="priority" />
	<node id="2575216310" x="351393.13" y="2770256.04" z="0.00" type="priority" />
	<node id="2575216314" x="351396.51" y="2770338.43" z="0.00" type="priority" />
	<node id="2575216315" x="351375.69" y="2770258.93" z="0.00" type="priority" />
	<node id="2575216316" x="351314.49" y="2770198.29" z="0.00" type="priority" />
	<node id="2575216318" x="351336.06" y="2770269.19" z="0.00" type="priority" />
	<node id="2575216319" x="351511.27" y="2770223.12" z="0.00" type="priority" />
	<node id="2618719349" x="350500.26" y="2770299.16" z="0.00" type="traffic_light" />
	<node id="2618719351" x="350508.89" y="2770296.72" z="0.00" type="traffic_light" />
	<node id="2618719353" x="350504.36" y="2770256.65" z="0.00" type="traffic_light" />
	<node id="2618719355" x="350513.33" y="2770254.02" z="0.00" type="traffic_light" />
	<node id="2664674480" x="351881.58" y="2770915.16" z="0.00" type="priority" />
	<node id="2664674489" x="351795.87" y="2770985.12" z="0.00" type="priority" />
	<node id="2690921409" x="352176.99" y="2770396.15" z="0.00" type="priority" />
	<node id="269201135" x="351217.46" y="2770012.21" z="0.00" type="traffic_light" />
	<node id="2700242062" x="351126.17" y="2770689.87" z="0.00" type="priority" />
	<node id="2727211119" x="350825.47" y="2770639.61" z="0.00" type="traffic_light" />
	<node id="2730537724" x="351367.76" y="2770556.04" z="0.00" type="priority" />
	<node id="2730537727" x="351088.17" y="2770563.39" z="0.00" type="traffic_light" />
	<node id="2730537748" x="351191.61" y="2770603.61" z="0.00" type="priority" />
	<node id="2730537756" x="351107.39" y="2770627.15" z="0.00" type="priority" />
	<node id="2730537773" x="351112.19" y="2770643.17" z="0.00" type="priority" />
	<node id="2730537789" x="351019.14" y="2770666.74" z="0.00" type="priority" />
	<node id="2737317132" x="350494.58" y="2770186.76" z="0.00" type="priority" />
	<node id="2744857503" x="350598.36" y="2770107.26" z="0.00" type="priority" />
	<node id="2747113473" x="350867.31" y="2770788.67" z="0.00" type="priority" />
	<node id="2749314012" x="350769.94" y="2770979.66" z="0.00" type="priority" />
	<node id="2754579119" x="350527.16" y="2770858.04" z="0.00" type="priority" />
	<node id="280389382" x="351138.16" y="2770409.09" z="0.00" type="traffic_light" />
	<node id="280389384" x="351349.86" y="2770491.38" z="0.00" type="traffic_light" />
	<node id="280389385" x="351173.98" y="2770539.45" z="0.00" type="traffic_light" />
	<node id="280389388" x="351314.11" y="2770361.93" z="0.00" type="traffic_light" />
	<node id="280389389" x="350621.25" y="2770678.36" z="0.00" type="traffic_light" />
	<node id="280389390" x="350410.26" y="2770753.20" z="0.00" type="traffic_light" />
	<node id="280389395" x="351613.74" y="2770278.20" z="0.00" type="traffic_light" />
	<node id="2877022366" x="352238.76" y="2770386.36" z="0.00" type="traffic_light" />
	<node id="292783106" x="351433.70" y="2770795.28" z="0.00" type="priority" />
	<node id="292783107" x="351086.48" y="2770909.08" z="0.00" type="traffic_light" />
	<node id="292783108" x="350738.55" y="2771011.89" z="0.00" type="traffic_light" />
	<node id="292783119" x="350725.95" y="2770965.61" z="0.00" type="traffic_light" />
	<node id="292783128" x="351257.16" y="2770842.40" z="0.00" type="traffic_light" />
	<node id="3086736515" x="352500.14" y="2770697.08" z="0.00" type="priority" />
	<node id="3086736518" x="352176.99" y="2770727.63" z="0.00" type="traffic_light" />
	<node id="3086736519" x="352008.70" y="2770779.60" z="0.00" type="traffic_light" />
	<node id="3086736520" x="351986.93" y="2770786.66" z="0.00" type="traffic_light" />
	<node id="3086736522" x="351790.94" y="2770848.80" z="0.00" type="traffic_light" />
	<node id="3091610524" x="352399.82" y="2770608.29" z="0.00" type="traffic_light" />
	<node id="3110835029" x="352469.02" y="2769990.56" z="0.00" type="traffic_light" />
	<node id="3139322031" x="351655.23" y="2770442.39" z="0.00" type="priority" />
	<node id="3179389657" x="352782.06" y="2770626.69" z="0.00" type="priority" />
	<node id="3179389658" x="352839.15" y="2770625.52" z="0.00" type="priority" />
	<node id="3179725582" x="352681.64" y="2770348.78" z="0.00" type="traffic_light" />
	<node id="3196998921" x="352825.57" y="2770663.92" z="0.00" type="priority" />
	<node id="3196998922" x="352839.69" y="2770664.32" z="0.00" type="priority" />
	<node id="3196998925" x="352656.29" y="2770672.98" z="0.00" type="traffic_light" />
	<node id="3196998936" x="352823.05" y="2770690.20" z="0.00" type="priority" />
	<node id="3196998937" x="352844.26" y="2770691.50" z="0.00" type="priority" />
	<node id="3196999070" x="351072.41" y="2771047.75" z="0.00" type="priority" />
	<node id="3196999082" x="351075.91" y="2771070.62" z="0.00" type="priority" />
	<node id="3208478121" x="352345.90" y="2770584.64" z="0.00" type="traffic_light" />
	<node id="3208478128" x="351950.27" y="2770834.57" z="0.00" type="priority" />
	<node id="3208478132" x="351964.09" y="2770859.94" z="0.00" type="priority" />
	<node id="3208478133" x="352009.87" y="2770816.43" z="0.00" type="traffic_light" />
	<node id="3208478135" x="352000.67" y="2771017.11" z="0.00" type="priority" />
	<node id="3228012809" x="351967.08" y="2770068.77" z="0.00" type="priority" />
	<node id="3298852248" x="350729.75" y="2771015.79" z="0.00" type="traffic_light" />
	<node id="3431431575" x="352292.13" y="2770808.80" z="0.00" type="priority" />
	<node id="3431431576" x="352315.64" y="2770717.03" z="0.00" type="priority" />
	<node id="3571770794" x="350734.22" y="2770963.48" z="0.00" type="traffic_light" />
	<node id="3571770795" x="350757.88" y="2770982.79" z="0.00" type="traffic_light" />
	<node id="3708404967" x="352766.39" y="2771349.18" z="0.00" type="traffic_light" />
	<node id="3784421842" x="350627.08" y="2770830.40" z="0.00" type="priority" />
	<node id="3799089098" x="350443.29" y="2770876.94" z="0.00" type="traffic_light" />
	<node id="423776327" x="350541.78" y="2770388.66" z="0.00" type="traffic_light" />
	<node id="423776328" x="351095.86" y="2770255.11" z="0.00" type="traffic_light" />
	<node id="4266714993" x="352667.34" y="2770697.12" z="0.00" type="traffic_light" />
	<node id="4266714994" x="352653.13" y="2770697.82" z="0.00" type="traffic_light" />
	<node id="4554226152" x="352021.42" y="2770813.31" z="0.00" type="priority" />
	<node id="4777363357" x="352273.51" y="2770805.54" z="0.00" type="priority" />
	<node id="5179289743" x="352155.38" y="2770247.55" z="0.00" type="priority" />
	<node id="5179289744" x="352167.44" y="2770247.90" z="0.00" type="priority" />
	<node id="5372642442" x="351997.50" y="2770443.49" z="0.00" type="traffic_light" />
	<node id="5664237422" x="352482.47" y="2770706.36" z="0.00" type="priority" />
	<node id="618955584" x="353097.06" y="2770692.09" z="0.00" type="traffic_light" />
	<node id="618955703" x="353112.56" y="2770718.44" z="0.00" type="traffic_light" />
	<node id="619136853" x="352841.94" y="2770246.65" z="0.00" type="priority" />
	<node id="619136857" x="353083.83" y="2770238.72" z="0.00" type="priority" />
	<node id="619136868" x="352844.51" y="2770345.25" z="0.00" type="traffic_light" />
	<node id="619136871" x="352835.26" y="2769990.69" z="0.00" type="traffic_light" />
	<node id="619136880" x="352439.67" y="2770354.52" z="0.00" type="priority" />
	<node id="619136881" x="352433.57" y="2770371.19" z="0.00" type="traffic_light" />
	<node id="619136884" x="352424.46" y="2770396.15" z="0.00" type="priority" />
	<node id="619136898" x="352384.27" y="2770413.29" z="0.00" type="priority" />
	<node id="619136899" x="352399.18" y="2770375.20" z="0.00" type="traffic_light" />
	<node id="619136900" x="352404.80" y="2770357.94" z="0.00" type="priority" />
	<node id="619136924" x="352532.47" y="2770075.77" z="0.00" type="priority" />
	<node id="619136929" x="352393.85" y="2770359.39" z="0.00" type="traffic_light" />
	<node id="619136931" x="352449.15" y="2770353.81" z="0.00" type="traffic_light" />
	<node id="619136941" x="352443.29" y="2770370.32" z="0.00" type="traffic_light" />
	<node id="619136942" x="352385.77" y="2770376.98" z="0.00" type="traffic_light" />
	<node id="619136999" x="352399.30" y="2770587.61" z="0.00" type="traffic_light" />
	<node id="619137000" x="352345.52" y="2770608.45" z="0.00" type="priority" />
	<node id="619137006" x="352456.44" y="2770148.37" z="0.00" type="priority" />
	<node id="619137043" x="352390.61" y="2770004.88" z="0.00" type="priority" />
	<node id="619137055" x="352436.35" y="2770298.60" z="0.00" type="priority" />
	<node id="619137061" x="352486.90" y="2769929.55" z="0.00" type="priority" />
	<node id="6223079734" x="352874.96" y="2770946.94" z="0.00" type="traffic_light" />
	<node id="6225155222" x="351865.42" y="2770181.39" z="0.00" type="priority" />
	<node id="6225155223" x="351804.80" y="2770197.65" z="0.00" type="priority" />
	<node id="6225155224" x="351872.37" y="2770162.01" z="0.00" type="priority" />
	<node id="6225155245" x="351859.72" y="2770159.52" z="0.00" type="priority" />
	<node id="622617634" x="352786.41" y="2770606.35" z="0.00" type="priority" />
	<node id="622617671" x="352783.10" y="2770664.86" z="0.00" type="priority" />
	<node id="622617758" x="352543.48" y="2770594.69" z="0.00" type="priority" />
	<node id="622617760" x="352686.78" y="2770602.32" z="0.00" type="priority" />
	<node id="622617839" x="352876.88" y="2770360.29" z="0.00" type="traffic_light" />
	<node id="622617930" x="352681.98" y="2770364.80" z="0.00" type="traffic_light" />
	<node id="622617959" x="352781.11" y="2770362.51" z="0.00" type="priority" />
	<node id="622617973" x="352933.67" y="2770673.39" z="0.00" type="traffic_light" />
	<node id="622617991" x="352856.05" y="2770678.74" z="0.00" type="priority" />
	<node id="622617994" x="352951.71" y="2770682.73" z="0.00" type="priority" />
	<node id="622618015" x="352403.08" y="2770703.42" z="0.00" type="traffic_light" />
	<node id="622618020" x="352605.61" y="2770688.64" z="0.00" type="priority" />
	<node id="622618102" x="352373.82" y="2770804.74" z="0.00" type="priority" />
	<node id="622618108" x="352347.95" y="2770705.16" z="0.00" type="priority" />
	<node id="622618112" x="352347.54" y="2770692.19" z="0.00" type="traffic_light" />
	<node id="622618144" x="352403.34" y="2770710.98" z="0.00" type="traffic_light" />
	<node id="622618153" x="352950.97" y="2770695.65" z="0.00" type="priority" />
	<node id="622618159" x="352368.27" y="2770665.91" z="0.00" type="priority" />
	<node id="622618165" x="352380.51" y="2770670.11" z="0.00" type="priority" />
	<node id="622618197" x="352402.57" y="2770688.54" z="0.00" type="traffic_light" />
	<node id="622618230" x="352348.23" y="2770715.02" z="0.00" type="traffic_light" />
	<node id="6229887848" x="350850.68" y="2770781.17" z="0.00" type="priority" />
	<node id="623915946" x="353108.50" y="2771007.88" z="0.00" type="traffic_light" />
	<node id="623915996" x="353108.22" y="2770999.83" z="0.00" type="traffic_light" />
	<node id="623980090" x="352405.37" y="2770848.61" z="0.00" type="traffic_light" />
	<node id="623980094" x="352405.73" y="2770856.60" z="0.00" type="traffic_light" />
	<node id="623980147" x="352353.81" y="2770846.12" z="0.00" type="traffic_light" />
	<node id="623980152" x="352353.82" y="2770837.54" z="0.00" type="traffic_light" />
	<node id="6251651467" x="351809.00" y="2770922.95" z="0.00" type="priority" />
	<node id="6251747844" x="351836.61" y="2770951.10" z="0.00" type="priority" />
	<node id="6256180027" x="351707.80" y="2771076.28" z="0.00" type="priority" />
	<node id="6256180031" x="351669.07" y="2771073.69" z="0.00" type="priority" />
	<node id="631668302" x="352459.84" y="2768498.02" z="0.00" type="priority" />
	<node id="631668813" x="352155.67" y="2770195.16" z="0.00" type="priority" />
	<node id="631668818" x="352167.87" y="2770303.07" z="0.00" type="priority" />
	<node id="631668821" x="352168.33" y="2770348.75" z="0.00" type="priority" />
	<node id="631668826" x="352060.39" y="2770360.18" z="0.00" type="priority" />
	<node id="631668923" x="351995.28" y="2770305.28" z="0.00" type="priority" />
	<node id="631668926" x="352411.98" y="2770315.17" z="0.00" type="priority" />
	<node id="631668943" x="351987.79" y="2770096.11" z="0.00" type="priority" />
	<node id="631668954" x="352009.14" y="2770789.83" z="0.00" type="traffic_light" />
	<node id="631668971" x="351987.12" y="2770796.71" z="0.00" type="traffic_light" />
	<node id="631668976" x="351983.83" y="2770447.21" z="0.00" type="traffic_light" />
	<node id="631668981" x="351982.88" y="2770430.38" z="0.00" type="traffic_light" />
	<node id="631668984" x="351976.17" y="2770200.44" z="0.00" type="traffic_light" />
	<node id="631668990" x="352298.10" y="2770191.74" z="0.00" type="priority" />
	<node id="631668996" x="352291.72" y="2770006.75" z="0.00" type="priority" />
	<node id="631669071" x="351986.25" y="2769993.80" z="0.00" type="traffic_light" />
	<node id="631669073" x="351991.22" y="2770200.27" z="0.00" type="traffic_light" />
	<node id="631669076" x="351997.02" y="2770427.62" z="0.00" type="traffic_light" />
	<node id="631669437" x="352451.38" y="2770191.02" z="0.00" type="traffic_light" />
	<node id="631669439" x="351926.57" y="2770201.99" z="0.00" type="priority" />
	<node id="631821694" x="352362.79" y="2771104.03" z="0.00" type="traffic_light" />
	<node id="631821706" x="352769.91" y="2771482.54" z="0.00" type="traffic_light" />
	<node id="631821873" x="352552.79" y="2770983.99" z="0.00" type="priority" />
	<node id="631821879" x="352518.46" y="2770942.93" z="0.00" type="priority" />
	<node id="631821932" x="352867.60" y="2770944.61" z="0.00" type="traffic_light" />
	<node id="631821937" x="352516.26" y="2771103.15" z="0.00" type="priority" />
	<node id="631821938" x="352531.70" y="2770879.00" z="0.00" type="traffic_light" />
	<node id="631821939" x="352801.94" y="2770756.52" z="0.00" type="priority" />
	<node id="631821941" x="352799.57" y="2770690.44" z="0.00" type="priority" />
	<node id="631821969" x="352934.09" y="2770772.26" z="0.00" type="priority" />
	<node id="631821972" x="352653.57" y="2770766.62" z="0.00" type="priority" />
	<node id="631821974" x="352542.16" y="2770771.71" z="0.00" type="priority" />
	<node id="631821979" x="352533.08" y="2770870.76" z="0.00" type="traffic_light" />
	<node id="631821982" x="352539.79" y="2770811.40" z="0.00" type="priority" />
	<node id="631821983" x="352547.99" y="2770702.27" z="0.00" type="priority" />
	<node id="631821997" x="352939.68" y="2770963.58" z="0.00" type="traffic_light" />
	<node id="631821998" x="352937.20" y="2770955.76" z="0.00" type="traffic_light" />
	<node id="631822001" x="352876.63" y="2770940.65" z="0.00" type="traffic_light" />
	<node id="631822018" x="352385.85" y="2770804.71" z="0.00" type="priority" />
	<node id="631822022" x="352405.28" y="2771027.34" z="0.00" type="priority" />
	<node id="631822025" x="352371.75" y="2771029.74" z="0.00" type="priority" />
	<node id="631822077" x="352375.03" y="2771104.52" z="0.00" type="traffic_light" />
	<node id="631822079" x="352410.07" y="2771106.44" z="0.00" type="traffic_light" />
	<node id="631822119" x="352628.82" y="2770893.96" z="0.00" type="traffic_light" />
	<node id="631822120" x="352630.41" y="2770885.90" z="0.00" type="traffic_light" />
	<node id="631822122" x="352759.70" y="2771095.52" z="0.00" type="traffic_light" />
	<node id="631822171" x="352764.69" y="2771275.33" z="0.00" type="traffic_light" />
	<node id="631822172" x="352770.93" y="2770920.21" z="0.00" type="traffic_light" />
	<node id="648172565" x="352416.63" y="2772195.35" z="0.00" type="priority" />
	<node id="648172632" x="352425.17" y="2772195.89" z="0.00" type="priority" />
	<node id="648172966" x="351525.47" y="2770002.35" z="0.00" type="traffic_light" />
	<node id="648173078" x="351529.87" y="2769978.22" z="0.00" type="traffic_light" />
	<node id="648173081" x="351534.04" y="2769990.11" z="0.00" type="traffic_light" />
	<node id="648173084" x="351538.11" y="2770001.49" z="0.00" type="traffic_light" />
	<node id="648173087" x="351626.24" y="2770274.64" z="0.00" type="traffic_light" />
	<node id="648173105" x="351213.92" y="2769999.25" z="0.00" type="traffic_light" />
	<node id="648173107" x="350850.71" y="2770056.44" z="0.00" type="traffic_light" />
	<node id="648173130" x="351969.48" y="2769991.20" z="0.00" type="traffic_light" />
	<node id="648173132" x="351639.19" y="2769998.87" z="0.00" type="traffic_light" />
	<node id="648173140" x="350672.14" y="2770096.17" z="0.00" type="priority" />
	<node id="648173273" x="351641.69" y="2770107.57" z="0.00" type="priority" />
	<node id="654299140" x="351471.95" y="2771724.90" z="0.00" type="priority" />
	<node id="654326213" x="352002.98" y="2771116.29" z="0.00" type="traffic_light" />
	<node id="654326238" x="352017.18" y="2771115.76" z="0.00" type="traffic_light" />
	<node id="654326328" x="351682.21" y="2771078.17" z="0.00" type="priority" />
	<node id="655374960" x="351888.32" y="2770634.53" z="0.00" type="traffic_light" />
	<node id="655374967" x="352239.51" y="2770641.68" z="0.00" type="priority" />
	<node id="655374974" x="351637.06" y="2770330.18" z="0.00" type="priority" />
	<node id="655374976" x="351789.68" y="2770868.39" z="0.00" type="priority" />
	<node id="655374980" x="351797.21" y="2770892.87" z="0.00" type="priority" />
	<node id="655374983" x="351631.37" y="2770331.91" z="0.00" type="priority" />
	<node id="655375088" x="351473.63" y="2770952.10" z="0.00" type="priority" />
	<node id="655375092" x="351404.98" y="2770983.14" z="0.00" type="priority" />
	<node id="655375094" x="351400.64" y="2770972.02" z="0.00" type="priority" />
	<node id="655375105" x="351692.39" y="2770879.10" z="0.00" type="priority" />
	<node id="655375108" x="351772.68" y="2770854.53" z="0.00" type="traffic_light" />
	<node id="655375115" x="351371.99" y="2770994.66" z="0.00" type="priority" />
	<node id="655375205" x="351367.19" y="2770983.27" z="0.00" type="priority" />
	<node id="655375223" x="351774.84" y="2770855.37" z="0.00" type="priority" />
	<node id="655375224" x="351762.25" y="2770827.30" z="0.00" type="priority" />
	<node id="655375225" x="351717.40" y="2770652.82" z="0.00" type="priority" />
	<node id="655375227" x="351728.97" y="2770627.54" z="0.00" type="priority" />
	<node id="655375228" x="351699.54" y="2770587.29" z="0.00" type="traffic_light" />
	<node id="655375229" x="351777.85" y="2770804.87" z="0.00" type="priority" />
	<node id="655375231" x="352265.92" y="2770793.72" z="0.00" type="traffic_light" />
	<node id="655375232" x="352187.33" y="2770735.12" z="0.00" type="traffic_light" />
	<node id="655375233" x="352162.09" y="2770715.56" z="0.00" type="traffic_light" />
	<node id="655375236" x="352008.17" y="2770666.49" z="0.00" type="traffic_light" />
	<node id="655375238" x="351776.61" y="2770606.65" z="0.00" type="priority" />
	<node id="655375239" x="351721.38" y="2770592.78" z="0.00" type="traffic_light" />
	<node id="655375240" x="351693.94" y="2770585.89" z="0.00" type="traffic_light" />
	<node id="655375241" x="351603.84" y="2770563.25" z="0.00" type="traffic_light" />
	<node id="655375242" x="351579.15" y="2770555.44" z="0.00" type="traffic_light" />
	<node id="655375244" x="352217.95" y="2770806.69" z="0.00" type="priority" />
	<node id="655375245" x="351794.38" y="2770942.82" z="0.00" type="priority" />
	<node id="655375246" x="351775.12" y="2770862.57" z="0.00" type="traffic_light" />
	<node id="655375247" x="351769.16" y="2770843.72" z="0.00" type="traffic_light" />
	<node id="655375248" x="351686.15" y="2770553.05" z="0.00" type="traffic_light" />
	<node id="655375249" x="351662.95" y="2770530.55" z="0.00" type="traffic_light" />
	<node id="655375253" x="351718.74" y="2771055.92" z="0.00" type="priority" />
	<node id="655375259" x="351684.78" y="2771062.18" z="0.00" type="priority" />
	<node id="655375262" x="351773.70" y="2770970.90" z="0.00" type="priority" />
	<node id="655375266" x="351793.17" y="2770919.35" z="0.00" type="priority" />
	<node id="655375287" x="351815.62" y="2770923.94" z="0.00" type="priority" />
	<node id="655375288" x="351830.11" y="2770912.76" z="0.00" type="priority" />
	<node id="655375293" x="351987.91" y="2770829.08" z="0.00" type="traffic_light" />
	<node id="655375296" x="351995.11" y="2770838.81" z="0.00" type="traffic_light" />
	<node id="655375336" x="352008.16" y="2770766.66" z="0.00" type="traffic_light" />
	<node id="655375345" x="351986.92" y="2770772.99" z="0.00" type="traffic_light" />
	<node id="655375401" x="351791.06" y="2770837.18" z="0.00" type="traffic_light" />
	<node id="655375489" x="351791.81" y="2770857.04" z="0.00" type="traffic_light" />
	<node id="655375573" x="351780.47" y="2770508.43" z="0.00" type="traffic_light" />
	<node id="655375574" x="351723.48" y="2770526.37" z="0.00" type="traffic_light" />
	<node id="655375578" x="351694.59" y="2770505.61" z="0.00" type="traffic_light" />
	<node id="656132411" x="352012.91" y="2770965.17" z="0.00" type="traffic_light" />
	<node id="656132412" x="352074.38" y="2770963.30" z="0.00" type="priority" />
	<node id="656132414" x="352070.00" y="2770810.02" z="0.00" type="priority" />
	<node id="656132416" x="352014.55" y="2771016.67" z="0.00" type="priority" />
	<node id="656132459" x="351715.59" y="2771067.68" z="0.00" type="traffic_light" />
	<node id="656132475" x="351999.62" y="2770965.64" z="0.00" type="traffic_light" />
	<node id="656132476" x="351852.14" y="2770970.18" z="0.00" type="priority" />
	<node id="656132484" x="351853.30" y="2771021.70" z="0.00" type="priority" />
	<node id="656132485" x="351754.73" y="2771024.57" z="0.00" type="priority" />
	<node id="656132495" x="351856.51" y="2771120.33" z="0.00" type="traffic_light" />
	<node id="656132498" x="351998.19" y="2770911.70" z="0.00" type="priority" />
	<node id="656132499" x="351882.93" y="2770914.46" z="0.00" type="priority" />
	<node id="656415970" x="350961.38" y="2771144.69" z="0.00" type="priority" />
	<node id="656416019" x="351521.67" y="2771107.31" z="0.00" type="traffic_light" />
	<node id="656416024" x="351481.30" y="2770962.62" z="0.00" type="priority" />
	<node id="656416041" x="351344.74" y="2771154.12" z="0.00" type="traffic_light" />
	<node id="656416051" x="351308.64" y="2771023.05" z="0.00" type="traffic_light" />