<edges>
	<edge id="6183255_1505012053_9402530955" from="1505012053" to="9402530955" numLanes="2" shape="350622.35,2770708.80,0.00 350621.62,2770706.08,0.00 350618.86,2770695.96,0.00" speed="18.06" />
	<edge id="381733807_7702583150_2730537727" from="7702583150" to="2730537727" numLanes="1" shape="351098.50,2770596.89,0.00 351091.34,2770573.90,0.00 351088.17,2770563.39,0.00" speed="8.33" />
	<edge id="515166742_2618719351_9402574783" from="2618719351" to="9402574783" numLanes="2" shape="350508.89,2770296.72,0.00 350506.11,2770287.29,0.00 350503.44,2770276.85,0.00" speed="18.06" />
	<edge id="906806093_619137055_1512685982" from="619137055" to="1512685982" numLanes="3" shape="352436.35,2770298.60,0.00 352438.12,2770293.54,0.00" speed="19.44" />
	<edge id="131473123_1446842472_1446842467" from="1446842472" to="1446842467" numLanes="2" shape="351872.43,2770074.50,0.00 351923.76,2770070.48,0.00" speed="8.33" />
	<edge id="182334379_2528018119_631668976" from="2528018119" to="631668976" numLanes="4" shape="351990.63,2770662.02,0.00 351990.23,2770648.56,0.00 351988.02,2770596.72,0.00 351986.40,2770524.68,0.00 351984.73,2770472.47,0.00 351984.21,2770461.97,0.00 351983.83,2770447.21,0.00" speed="16.67" />
	<edge id="269789536_965533210_2727211119" from="965533210" to="2727211119" numLanes="1" shape="350832.38,2770637.70,0.00 350825.47,2770639.61,0.00" speed="8.33" />
	<edge id="325213924_280389389_9402530956" from="280389389" to="9402530956" numLanes="2" shape="350621.25,2770678.36,0.00 350622.67,2770683.44,0.00 350625.68,2770694.23,0.00" speed="18.06" />
	<edge id="484988952_4777363357_655375244" from="4777363357" to="655375244" numLanes="2" shape="352273.51,2770805.54,0.00 352261.35,2770806.85,0.00 352237.33,2770807.35,0.00 352217.95,2770806.69,0.00" speed="13.89" />
	<edge id="131473126_1446842502_1446842509" from="1446842502" to="1446842509" numLanes="2" shape="351358.80,2770133.65,0.00 351266.74,2770161.33,0.00 351259.18,2770163.29,0.00" speed="8.33" />
	<edge id="263474460_5179289743_631668813" from="5179289743" to="631668813" numLanes="1" shape="352155.38,2770247.55,0.00 352155.67,2770195.16,0.00" speed="8.33" />
	<edge id="131473136_1446842482_1446842464" from="1446842482" to="1446842464" numLanes="2" shape="351742.31,2770091.47,0.00 351668.70,2770071.36,0.00 351649.30,2770068.86,0.00 351642.64,2770069.58,0.00" speed="8.33" />
	<edge id="593847705_655375233_3086736518" from="655375233" to="3086736518" numLanes="2" shape="352162.09,2770715.56,0.00 352176.99,2770727.63,0.00" speed="13.89" />
	<edge id="515166733_656416079_9402564708" from="656416079" to="9402564708" numLanes="2" shape="350653.56,2770791.05,0.00 350655.09,2770796.38,0.00 350659.80,2770812.75,0.00" speed="18.06" />
	<edge id="259080307_656132412_656132414" from="656132412" to="656132414" numLanes="2" shape="352074.38,2770963.30,0.00 352070.26,2770820.66,0.00 352070.00,2770810.02,0.00" speed="8.33" />
	<edge id="330804412_9402574782_1505012127" from="9402574782" to="1505012127" numLanes="2" shape="350494.79,2770279.22,0.00 350491.51,2770267.83,0.00 350457.01,2770146.49,0.00" speed="18.06" />
	<edge id="506359646_3708404967_631822171" from="3708404967" to="631822171" numLanes="2" shape="352766.39,2771349.18,0.00 352766.43,2771331.90,0.00 352764.69,2771275.33,0.00" speed="13.89" />
	<edge id="51423113_656416133_665044722" from="656416133" to="665044722" numLanes="1" shape="350702.07,2770814.59,0.00 350666.73,2770821.74,0.00" speed="18.06" />
	<edge id="49073272_622618108_622618112" from="622618108" to="622618112" numLanes="2" shape="352347.95,2770705.16,0.00 352347.54,2770692.19,0.00" speed="13.89" />
	<edge id="131473128_1446842490_1446842479" from="1446842490" to="1446842479" numLanes="1" shape="351295.90,2770105.85,0.00 351292.18,2770095.09,0.00" speed="8.33" />
	<edge id="49073240_3179389657_622617671" from="3179389657" to="622617671" numLanes="1" shape="352782.06,2770626.69,0.00 352782.83,2770657.03,0.00 352783.10,2770664.86,0.00" speed="8.33" />
	<edge id="48794904_619137006_619137043" from="619137006" to="619137043" numLanes="1" shape="352456.44,2770148.37,0.00 352454.51,2770136.32,0.00 352453.02,2770017.67,0.00 352450.90,2770009.82,0.00 352447.53,2770006.61,0.00 352435.41,2770004.13,0.00 352409.09,2770005.10,0.00 352390.61,2770004.88,0.00" speed="13.89" />
	<edge id="25715401_280389382_280389388" from="280389382" to="280389388" numLanes="1" shape="351138.16,2770409.09,0.00 351147.17,2770406.69,0.00 351175.69,2770399.05,0.00 351301.85,2770365.22,0.00 351314.11,2770361.93,0.00" speed="13.89" />
	<edge id="1334464949_622617760_622617758" from="622617760" to="622617758" numLanes="2" shape="352686.78,2770602.32,0.00 352680.46,2770601.94,0.00 352653.29,2770600.68,0.00 352543.48,2770594.69,0.00" speed="8.33" />
	<edge id="261898534_2081945232_1926948289" from="2081945232" to="1926948289" numLanes="2" shape="351485.64,2770375.41,0.00 351463.46,2770369.88,0.00 351429.03,2770362.27,0.00 351376.75,2770350.80,0.00 351363.66,2770347.73,0.00" speed="8.33" />
	<edge id="269505244_9402558759_2747113473" from="9402558759" to="2747113473" numLanes="1" shape="350868.11,2770791.50,0.00 350867.31,2770788.67,0.00" speed="8.33" />
	<edge id="268564474_423776328_1720485460" from="423776328" to="1720485460" numLanes="1" shape="351095.86,2770255.11,0.00 351087.88,2770257.67,0.00 351064.38,2770264.05,0.00 351063.30,2770264.34,0.00 351026.77,2770274.26,0.00 350985.70,2770285.90,0.00 350931.35,2770300.75,0.00 350916.68,2770304.82,0.00" speed="8.33" />
	<edge id="192888504_1140226515_1140228862" from="1140226515" to="1140228862" numLanes="4" shape="351188.67,2770672.46,0.00 351194.89,2770670.77,0.00 351209.20,2770666.76,0.00 351219.72,2770663.81,0.00 351296.25,2770642.53,0.00 351343.19,2770629.45,0.00 351365.98,2770623.08,0.00" speed="18.06" />
	<edge id="51289045_2664674480_6251747844" from="2664674480" to="6251747844" numLanes="2" shape="351881.58,2770915.16,0.00 351844.27,2770944.76,0.00 351836.61,2770951.10,0.00" speed="13.89" />
	<edge id="207614894_2178660135_2178660132" from="2178660135" to="2178660132" numLanes="2" shape="351594.71,2770167.69,0.00 351601.45,2770165.88,0.00 351677.21,2770145.45,0.00" speed="8.33" />
	<edge id="515166740_9402574781_2618719349" from="9402574781" to="2618719349" numLanes="2" shape="350531.38,2770410.74,0.00 350527.74,2770397.66,0.00 350520.29,2770370.96,0.00 350500.26,2770299.16,0.00" speed="18.06" />
	<edge id="593844218_655375293_9631728504" from="655375293" to="9631728504" numLanes="2" shape="351987.91,2770829.08,0.00 351999.12,2770820.94,0.00" speed="13.89" />
	<edge id="515166747_9402574779_1505012123" from="9402574779" to="1505012123" numLanes="2" shape="350546.66,2770405.84,0.00 350548.51,2770412.70,0.00 350583.20,2770541.14,0.00" speed="18.06" />
	<edge id="515166742_9402574780_2618719351" from="9402574780" to="2618719351" numLanes="2" shape="350539.93,2770408.00,0.00 350536.24,2770394.79,0.00 350508.89,2770296.72,0.00" speed="18.06" />
	<edge id="1064294860_2178660138_648173087" from="2178660138" to="648173087" numLanes="3" shape="351611.08,2770216.38,0.00 351616.00,2770235.34,0.00 351623.64,2770264.69,0.00 351626.24,2770274.64,0.00" speed="16.67" />
	<edge id="26697218_292783128_9402558764" from="292783128" to="9402558764" numLanes="1" shape="351257.16,2770842.40,0.00 351177.26,2770865.06,0.00 351115.93,2770882.45,0.00 351101.79,2770886.45,0.00" speed="13.89" />
	<edge id="506322851_631669076_2690921409" from="631669076" to="2690921409" numLanes="4" shape="351997.02,2770427.62,0.00 352015.80,2770423.91,0.00 352071.63,2770414.35,0.00 352127.12,2770404.85,0.00 352176.99,2770396.15,0.00" speed="13.89" />
	<edge id="51423114_2754579119_3784421842" from="2754579119" to="3784421842" numLanes="1" shape="350527.16,2770858.04,0.00 350627.08,2770830.40,0.00" speed="18.06" />
	<edge id="48794882_619136868_619136853" from="619136868" to="619136853" numLanes="1" shape="352844.51,2770345.25,0.00 352844.28,2770336.26,0.00 352844.00,2770325.29,0.00 352843.28,2770297.93,0.00 352843.17,2770293.70,0.00 352843.04,2770288.15,0.00 352842.76,2770277.89,0.00 352841.94,2770246.65,0.00" speed="8.33" />
	<edge id="1239087512_3208478133_4554226152" from="3208478133" to="4554226152" numLanes="2" shape="352009.87,2770816.43,0.00 352021.42,2770813.31,0.00" speed="13.89" />
	<edge id="269505244_2747113473_9402558759" from="2747113473" to="9402558759" numLanes="1" shape="350867.31,2770788.67,0.00 350868.11,2770791.50,0.00" speed="8.33" />
	<edge id="506322857_3110835029_9382067107" from="3110835029" to="9382067107" numLanes="2" shape="352469.02,2769990.56,0.00 352468.93,2769986.86,0.00 352474.32,2769975.04,0.00" speed="13.89" />
	<edge id="98562079_1140220197_656416150" from="1140220197" to="656416150" numLanes="1" shape="350444.35,2770876.80,0.00 350514.98,2770861.66,0.00" speed="18.06" />
	<edge id="51423110_2618719353_9402574784" from="2618719353" to="9402574784" numLanes="2" shape="350504.36,2770256.65,0.00 350506.45,2770263.99,0.00 350509.58,2770275.17,0.00" speed="18.06" />
	<edge id="330804416_2051219340_9402574782" from="2051219340" to="9402574782" numLanes="1" shape="350297.62,2770340.98,0.00 350306.37,2770331.85,0.00 350429.52,2770297.06,0.00 350487.44,2770281.22,0.00 350494.79,2770279.22,0.00" speed="8.33" />
	<edge id="131473129_1446842503_2031882172" from="1446842503" to="2031882172" numLanes="1" shape="351016.15,2770139.98,0.00 350967.16,2770152.05,0.00 350890.24,2770171.00,0.00 350881.69,2770173.11,0.00" speed="8.33" />
	<edge id="300077497_655374960_2528018119" from="655374960" to="2528018119" numLanes="1" shape="351888.32,2770634.53,0.00 351897.39,2770636.99,0.00 351911.95,2770640.65,0.00 351972.65,2770657.64,0.00 351990.63,2770662.02,0.00" speed="13.89" />
	<edge id="196961215_631822119_631821938" from="631822119" to="631821938" numLanes="3" shape="352628.82,2770893.96,0.00 352622.04,2770892.92,0.00 352591.75,2770888.18,0.00 352538.87,2770880.26,0.00 352531.70,2770879.00,0.00" speed="13.89" />
	<edge id="668037878_631668302_1512685967" from="631668302" to="1512685967" numLanes="2" shape="352459.84,2768498.02,0.00 352466.88,2768651.61,0.00 352471.17,2768910.93,0.00 352481.73,2769287.07,0.00 352491.93,2769681.18,0.00 352493.80,2769740.92,0.00 352495.02,2769817.34,0.00 352496.96,2769871.76,0.00 352498.42,2769930.78,0.00 352501.25,2770029.94,0.00 352499.85,2770087.96,0.00 352495.28,2770140.77,0.00 352487.10,2770186.08,0.00 352472.48,2770235.76,0.00 352464.79,2770256.21,0.00" speed="19.44" />
	<edge id="270765870_9402558756_9402558757" from="9402558756" to="9402558757" numLanes="1" shape="350864.20,2770777.69,0.00 350860.07,2770762.70,0.00" speed="8.33" />
	<edge id="260152357_655374980_654299140" from="655374980" to="654299140" numLanes="2" shape="351797.21,2770892.87,0.00 351803.13,2770924.56,0.00 351804.04,2770933.17,0.00 351803.52,2770941.98,0.00 351802.43,2770947.92,0.00 351800.93,2770954.19,0.00 351796.59,2770964.40,0.00 351792.67,2770970.96,0.00 351787.99,2770977.01,0.00 351720.63,2771045.58,0.00 351687.48,2771083.63,0.00 351655.45,2771124.89,0.00 351633.79,2771156.66,0.00 351616.79,2771183.71,0.00 351604.42,2771204.30,0.00 351592.53,2771226.28,0.00 351580.35,2771249.18,0.00 351567.35,2771275.27,0.00 351555.66,2771300.79,0.00 351543.78,2771329.23,0.00 351522.15,2771387.06,0.00 351515.87,2771406.37,0.00 351508.80,2771431.34,0.00 351495.81,2771480.53,0.00 351487.45,2771518.65,0.00 351482.09,2771550.78,0.00 351477.35,2771600.22,0.00 351473.69,2771649.39,0.00 351472.00,2771692.59,0.00 351471.95,2771724.90,0.00" speed="13.89" />
	<edge id="1320961817_269201135_1446842468" from="269201135" to="1446842468" numLanes="6" shape="351217.46,2770012.21,0.00 351219.20,2770018.26,0.00 351227.63,2770049.01,0.00 351230.88,2770060.76,0.00 351235.60,2770079.11,0.00" speed="13.89" />
	<edge id="515156309_9382125572_656416081" from="9382125572" to="656416081" numLanes="2" shape="350733.46,2770982.87,0.00 350737.15,2770991.36,0.00 350744.56,2771006.62,0.00 350766.84,2771059.57,0.00" speed="18.06" />
	<edge id="49795875_656416225_9402574778" from="656416225" to="9402574778" numLanes="2" shape="350550.21,2770386.33,0.00 350551.54,2770391.11,0.00 350554.91,2770403.19,0.00" speed="18.06" />
	<edge id="1334905225_655375239_655375228" from="655375239" to="655375228" numLanes="1" shape="351721.38,2770592.78,0.00 351699.54,2770587.29,0.00" speed="13.89" />
	<edge id="313684476_3196998937_3196998922" from="3196998937" to="3196998922" numLanes="2" shape="352844.26,2770691.50,0.00 352835.18,2770682.97,0.00 352834.81,2770666.28,0.00 352839.69,2770664.32,0.00" speed="11.11" />
	<edge id="1334905224_655375240_655375228" from="655375240" to="655375228" numLanes="1" shape="351693.94,2770585.89,0.00 351699.54,2770587.29,0.00" speed="13.89" />
	<edge id="159980284_2730537789_1720485456" from="2730537789" to="1720485456" numLanes="1" shape="351019.14,2770666.74,0.00 351014.89,2770650.70,0.00 351001.22,2770601.43,0.00 350998.39,2770591.59,0.00" speed="13.89" />
	<edge id="241811768_1720485460_9402574778" from="1720485460" to="9402574778" numLanes="1" shape="350916.68,2770304.82,0.00 350906.34,2770306.97,0.00 350902.07,2770308.15,0.00 350896.37,2770309.73,0.00 350810.87,2770333.39,0.00 350746.07,2770350.47,0.00 350735.66,2770353.21,0.00 350720.54,2770357.77,0.00 350716.97,2770358.73,0.00 350675.89,2770369.76,0.00 350645.85,2770378.15,0.00 350619.18,2770385.61,0.00 350590.59,2770393.14,0.00 350563.27,2770400.90,0.00 350554.91,2770403.19,0.00" speed="8.33" />
	<edge id="506322836_656416209_9402564706" from="656416209" to="9402564706" numLanes="3" shape="350697.76,2770823.86,0.00 350688.70,2770825.90,0.00 350676.62,2770828.72,0.00" speed="18.06" />
	<edge id="910567294_619136881_619136899" from="619136881" to="619136899" numLanes="3" shape="352433.57,2770371.19,0.00 352399.18,2770375.20,0.00" speed="18.06" />
	<edge id="51362429_655375232_655375231" from="655375232" to="655375231" numLanes="2" shape="352187.33,2770735.12,0.00 352197.99,2770742.58,0.00 352265.92,2770793.72,0.00" speed="13.89" />
	<edge id="49710824_631821979_631821982" from="631821979" to="631821982" numLanes="2" shape="352533.08,2770870.76,0.00 352533.83,2770863.26,0.00 352539.35,2770823.82,0.00 352539.79,2770811.40,0.00" speed="8.33" />
	<edge id="267609448_2730537748_2730537724" from="2730537748" to="2730537724" numLanes="2" shape="351191.61,2770603.61,0.00 351198.59,2770601.73,0.00 351359.00,2770558.39,0.00 351367.76,2770556.04,0.00" speed="8.33" />
	<edge id="665079918_6225155222_1973482483" from="6225155222" to="1973482483" numLanes="2" shape="351865.42,2770181.39,0.00 351861.96,2770192.46,0.00 351861.82,2770198.62,0.00 351861.52,2770210.66,0.00" speed="8.33" />
	<edge id="49073272_3208478121_619136942" from="3208478121" to="619136942" numLanes="2" shape="352345.90,2770584.64,0.00 352348.13,2770550.42,0.00 352351.89,2770518.94,0.00 352355.08,2770492.20,0.00 352363.19,2770453.94,0.00 352371.40,2770422.61,0.00 352381.43,2770390.63,0.00 352385.77,2770376.98,0.00" speed="13.89" />
	<edge id="49695736_655375345_2528018119" from="655375345" to="2528018119" numLanes="3" shape="351986.92,2770772.99,0.00 351986.79,2770757.45,0.00 351986.50,2770720.79,0.00 351986.33,2770699.16,0.00 351986.16,2770677.89,0.00 351990.63,2770662.02,0.00" speed="13.89" />
	<edge id="260882327_656132484_656132495" from="656132484" to="656132495" numLanes="1" shape="351853.30,2771021.70,0.00 351854.18,2771055.81,0.00 351854.54,2771064.41,0.00 351856.51,2771120.33,0.00" speed="8.33" />
	<edge id="313684474_3196998921_3196998936" from="3196998921" to="3196998936" numLanes="2" shape="352825.57,2770663.92,0.00 352831.13,2770666.29,0.00 352832.21,2770683.26,0.00 352823.05,2770690.20,0.00" speed="11.11" />
	<edge id="593847701_3086736518_655375232" from="3086736518" to="655375232" numLanes="1" shape="352176.99,2770727.63,0.00 352187.33,2770735.12,0.00" speed="13.89" />
	<edge id="311868391_631821974_631821972" from="631821974" to="631821972" numLanes="1" shape="352542.16,2770771.71,0.00 352646.37,2770766.79,0.00 352653.57,2770766.62,0.00" speed="8.33" />
	<edge id="268564473_631821694_623980147" from="631821694" to="623980147" numLanes="2" shape="352362.79,2771104.03,0.00 352362.80,2771091.85,0.00 352361.39,2771053.13,0.00 352359.53,2771009.83,0.00 352358.72,2770970.38,0.00 352357.94,2770934.22,0.00 352357.17,2770904.39,0.00 352354.91,2770865.17,0.00 352353.81,2770846.12,0.00" speed="13.89" />
	<edge id="30620492_7199509890_1926948337" from="7199509890" to="1926948337" numLanes="2" shape="351632.12,2770291.83,0.00 351646.02,2770332.49,0.00 351659.94,2770381.24,0.00 351672.49,2770424.12,0.00 351684.64,2770471.13,0.00 351690.86,2770491.47,0.00" speed="13.89" />
	<edge id="593844216_9631736224_656132411" from="9631736224" to="656132411" numLanes="4" shape="352008.10,2770826.42,0.00 352008.59,2770838.52,0.00 352012.53,2770957.57,0.00 352012.91,2770965.17,0.00" speed="16.67" />
	<edge id="515166733_9402530956_656416079" from="9402530956" to="656416079" numLanes="2" shape="350625.68,2770694.23,0.00 350628.54,2770704.17,0.00 350653.56,2770791.05,0.00" speed="18.06" />
	<edge id="198874292_9402558757_9383240485" from="9402558757" to="9383240485" numLanes="4" shape="350860.07,2770762.70,0.00 350868.55,2770760.34,0.00 350890.77,2770753.93,0.00 350930.40,2770743.53,0.00 350971.96,2770732.55,0.00 351011.34,2770721.59,0.00" speed="18.06" />
	<edge id="268564474_1720485460_423776328" from="1720485460" to="423776328" numLanes="1" shape="350916.68,2770304.82,0.00 350931.35,2770300.75,0.00 350985.70,2770285.90,0.00 351026.77,2770274.26,0.00 351063.30,2770264.34,0.00 351064.38,2770264.05,0.00 351087.88,2770257.67,0.00 351095.86,2770255.11,0.00" speed="8.33" />
	<edge id="405980655_2013717671_619136931" from="2013717671" to="619136931" numLanes="2" shape="352509.08,2770188.68,0.00 352494.10,2770232.29,0.00 352486.31,2770253.01,0.00 352483.14,2770261.46,0.00 352453.87,2770340.87,0.00 352449.15,2770353.81,0.00" speed="13.89" />
	<edge id="244456578_1505012094_656416184" from="1505012094" to="656416184" numLanes="3" shape="350609.59,2770823.41,0.00 350617.96,2770821.44,0.00" speed="18.06" />
	<edge id="506322857_619137006_3110835029" from="619137006" to="3110835029" numLanes="2" shape="352456.44,2770148.37,0.00 352463.03,2770103.11,0.00 352469.28,2770051.70,0.00 352469.41,2770010.76,0.00 352469.02,2769990.56,0.00" speed="13.89" />
	<edge id="506322836_9402558756_6229887848" from="9402558756" to="6229887848" numLanes="3" shape="350864.20,2770777.69,0.00 350856.96,2770779.51,0.00 350850.68,2770781.17,0.00" speed="18.06" />
	<edge id="506322846_2038168688_1973482489" from="2038168688" to="1973482489" numLanes="3" shape="351776.66,2770495.59,0.00 351788.95,2770491.43,0.00 351821.25,2770481.14,0.00 351915.29,2770450.66,0.00" speed="18.06" />
	<edge id="318254711_9402564706_9402564711" from="9402564706" to="9402564711" numLanes="2" shape="350676.62,2770828.72,0.00 350667.22,2770830.73,0.00" speed="18.06" />
	<edge id="238526530_9383263988_655375242" from="9383263988" to="655375242" numLanes="3" shape="351384.84,2770617.86,0.00 351397.35,2770614.01,0.00 351429.52,2770603.50,0.00 351569.01,2770558.70,0.00 351579.15,2770555.44,0.00" speed="18.06" />
	<edge id="1064294860_648173084_1446842498" from="648173084" to="1446842498" numLanes="3" shape="351538.11,2770001.49,0.00 351541.84,2770012.10,0.00 351549.42,2770034.60,0.00 351564.44,2770077.99,0.00 351578.50,2770120.48,0.00 351580.18,2770125.58,0.00" speed="16.67" />
	<edge id="274809899_2727211119_9402530958" from="2727211119" to="9402530958" numLanes="1" shape="350825.47,2770639.61,0.00 350811.29,2770643.49,0.00 350806.32,2770644.85,0.00 350758.96,2770657.80,0.00 350757.32,2770658.24,0.00 350732.46,2770665.04,0.00 350731.10,2770665.41,0.00 350716.97,2770669.27,0.00 350653.88,2770686.52,0.00" speed="8.33" />
	<edge id="506359646_631822171_3708404967" from="631822171" to="3708404967" numLanes="2" shape="352764.69,2771275.33,0.00 352766.43,2771331.90,0.00 352766.39,2771349.18,0.00" speed="13.89" />
	<edge id="238526529_631668981_631669076" from="631668981" to="631669076" numLanes="3" shape="351982.88,2770430.38,0.00 351997.02,2770427.62,0.00" speed="18.06" />
	<edge id="131473109_1446842468_1446842497" from="1446842468" to="1446842497" numLanes="1" shape="351235.60,2770079.11,0.00 351165.57,2770098.48,0.00 351148.29,2770103.01,0.00 351060.79,2770127.51,0.00" speed="8.33" />
	<edge id="325213923_292783119_9382125572" from="292783119" to="9382125572" numLanes="2" shape="350725.95,2770965.61,0.00 350726.87,2770967.73,0.00 350733.46,2770982.87,0.00" speed="18.06" />
	<edge id="49710810_631821939_631821941" from="631821939" to="631821941" numLanes="2" shape="352801.94,2770756.52,0.00 352800.47,2770706.73,0.00 352799.57,2770690.44,0.00" speed="8.33" />
	<edge id="506322835_9402564705_9402564710" from="9402564705" to="9402564710" numLanes="2" shape="350659.02,2770832.90,0.00 350651.08,2770814.31,0.00" speed="18.06" />
	<edge id="274809899_9402530958_2727211119" from="9402530958" to="2727211119" numLanes="1" shape="350653.88,2770686.52,0.00 350716.97,2770669.27,0.00 350731.10,2770665.41,0.00 350732.46,2770665.04,0.00 350757.32,2770658.24,0.00 350758.96,2770657.80,0.00 350806.32,2770644.85,0.00 350811.29,2770643.49,0.00 350825.47,2770639.61,0.00" speed="8.33" />
	<edge id="260882327_656132484_656132476" from="656132484" to="656132476" numLanes="1" shape="351853.30,2771021.70,0.00 351852.14,2770970.18,0.00" speed="8.33" />
	<edge id="244450513_655375266_655375223" from="655375266" to="655375223" numLanes="2" shape="351793.17,2770919.35,0.00 351792.61,2770916.67,0.00 351783.67,2770885.00,0.00 351774.84,2770855.37,0.00" speed="19.44" />
	<edge id="594658761_655375401_3086736522" from="655375401" to="3086736522" numLanes="2" shape="351791.06,2770837.18,0.00 351790.94,2770848.80,0.00" speed="13.89" />
	<edge id="49073226_655375231_3431431575" from="655375231" to="3431431575" numLanes="3" shape="352265.92,2770793.72,0.00 352285.97,2770804.23,0.00 352292.13,2770808.80,0.00" speed="13.89" />
	<edge id="196961379_2527532992_2461138530" from="2527532992" to="2461138530" numLanes="3" shape="352772.79,2770913.26,0.00 352779.46,2770915.12,0.00 352786.07,2770917.13,0.00 352803.58,2770921.39,0.00 352827.42,2770927.43,0.00 352864.90,2770937.34,0.00 352869.27,2770938.48,0.00" speed="13.89" />
	<edge id="131473109_1446842497_1446842468" from="1446842497" to="1446842468" numLanes="1" shape="351060.79,2770127.51,0.00 351148.29,2770103.01,0.00 351165.57,2770098.48,0.00 351235.60,2770079.11,0.00" speed="8.33" />
	<edge id="251277094_2575216310_2575216319" from="2575216310" to="2575216319" numLanes="2" shape="351393.13,2770256.04,0.00 351511.27,2770223.12,0.00" speed="8.33" />
	<edge id="413949761_280389395_1446842500" from="280389395" to="1446842500" numLanes="2" shape="351613.74,2770278.20,0.00 351611.14,2770268.55,0.00 351598.15,2770220.69,0.00 351581.83,2770171.93,0.00 351576.58,2770155.76,0.00 351570.13,2770135.87,0.00 351567.71,2770128.41,0.00" speed="16.67" />
	<edge id="515166731_9402530955_9402530954" from="9402530955" to="9402530954" numLanes="1" shape="350618.86,2770695.96,0.00 350610.74,2770697.68,0.00" speed="8.33" />
	<edge id="506359646_7578670426_631822122" from="7578670426" to="631822122" numLanes="2" shape="352759.67,2771089.97,0.00 352759.70,2771095.52,0.00" speed="13.89" />
	<edge id="48794887_619136881_619136884" from="619136881" to="619136884" numLanes="2" shape="352433.57,2770371.19,0.00 352428.72,2770384.57,0.00 352424.46,2770396.15,0.00" speed="18.06" />
	<edge id="668037874_619136900_619136880" from="619136900" to="619136880" numLanes="3" shape="352404.80,2770357.94,0.00 352439.67,2770354.52,0.00" speed="18.06" />
	<edge id="26697218_9402558764_9402558762" from="9402558764" to="9402558762" numLanes="1" shape="351101.79,2770886.45,0.00 351096.88,2770887.83,0.00 351081.96,2770892.03,0.00" speed="13.89" />
	<edge id="131473135_1446842493_1446842496" from="1446842493" to="1446842496" numLanes="2" shape="351807.73,2770107.79,0.00 351848.28,2770115.39,0.00" speed="8.33" />
	<edge id="51362368_655375108_655375105" from="655375108" to="655375105" numLanes="1" shape="351772.68,2770854.53,0.00 351692.39,2770879.10,0.00" speed="18.06" />
	<edge id="515166751_9402574782_9402574783" from="9402574782" to="9402574783" numLanes="1" shape="350494.79,2770279.22,0.00 350503.44,2770276.85,0.00" speed="8.33" />
	<edge id="594658757_3086736522_3086736520" from="3086736522" to="3086736520" numLanes="1" shape="351790.94,2770848.80,0.00 351798.08,2770845.96,0.00 351975.51,2770789.98,0.00 351986.93,2770786.66,0.00" speed="18.06" />
	<edge id="49795875_9402574785_656416225" from="9402574785" to="656416225" numLanes="2" shape="350518.63,2770272.70,0.00 350521.22,2770282.09,0.00 350545.17,2770368.25,0.00 350550.21,2770386.33,0.00" speed="18.06" />
	<edge id="312725560_656416041_656416051" from="656416041" to="656416051" numLanes="1" shape="351344.74,2771154.12,0.00 351341.09,2771140.45,0.00 351330.08,2771102.36,0.00 351318.16,2771058.88,0.00 351310.09,2771028.47,0.00 351308.64,2771023.05,0.00" speed="8.33" />
	<edge id="260882327_6251747844_656132476" from="6251747844" to="656132476" numLanes="1" shape="351836.61,2770951.10,0.00 351852.14,2770970.18,0.00" speed="8.33" />
	<edge id="49710819_631821939_631821969" from="631821939" to="631821969" numLanes="1" shape="352801.94,2770756.52,0.00 352828.94,2770754.13,0.00 352862.21,2770752.40,0.00 352934.09,2770772.26,0.00" speed="8.33" />
	<edge id="131473123_1446842496_1446842472" from="1446842496" to="1446842472" numLanes="2" shape="351848.28,2770115.39,0.00 351855.49,2770075.53,0.00 351872.43,2770074.50,0.00" speed="8.33" />
	<edge id="131473117_1446842493_1446842458" from="1446842493" to="1446842458" numLanes="2" shape="351807.73,2770107.79,0.00 351809.65,2770103.36,0.00 351814.45,2770081.84,0.00 351814.12,2770060.45,0.00 351813.97,2770055.10,0.00" speed="8.33" />
	<edge id="593852345_622618144_623980090" from="622618144" to="623980090" numLanes="2" shape="352403.34,2770710.98,0.00 352403.40,2770721.11,0.00 352403.70,2770770.78,0.00 352405.11,2770836.22,0.00 352405.37,2770848.61,0.00" speed="13.89" />
	<edge id="196961379_2461138530_631822001" from="2461138530" to="631822001" numLanes="3" shape="352869.27,2770938.48,0.00 352876.63,2770940.65,0.00" speed="13.89" />
	<edge id="260881641_2664674480_655375288" from="2664674480" to="655375288" numLanes="2" shape="351881.58,2770915.16,0.00 351873.11,2770915.21,0.00 351848.04,2770933.43,0.00 351830.11,2770912.76,0.00" speed="11.11" />
	<edge id="49710819_631821939_631821972" from="631821939" to="631821972" numLanes="1" shape="352801.94,2770756.52,0.00 352767.04,2770759.30,0.00 352750.60,2770760.14,0.00 352747.91,2770760.28,0.00 352721.99,2770761.61,0.00 352658.52,2770766.26,0.00 352653.57,2770766.62,0.00" speed="8.33" />
	<edge id="198874289_2727211119_9402558758" from="2727211119" to="9402558758" numLanes="1" shape="350825.47,2770639.61,0.00 350827.96,2770648.53,0.00 350832.28,2770663.97,0.00 350842.17,2770699.39,0.00 350845.99,2770712.64,0.00 350852.22,2770734.31,0.00 350856.45,2770748.81,0.00" speed="8.33" />
	<edge id="35274074_655375238_655375573" from="655375238" to="655375573" numLanes="1" shape="351776.61,2770606.65,0.00 351779.17,2770598.01,0.00 351792.26,2770549.88,0.00 351783.71,2770519.17,0.00 351780.47,2770508.43,0.00" speed="8.33" />
	<edge id="49073247_622617758_619136999" from="622617758" to="619136999" numLanes="2" shape="352543.48,2770594.69,0.00 352482.78,2770591.85,0.00 352405.18,2770588.69,0.00 352399.30,2770587.61,0.00" speed="8.33" />
	<edge id="515166738_1505012062_9402530957" from="1505012062" to="9402530957" numLanes="2" shape="350631.42,2770674.72,0.00 350633.13,2770680.77,0.00 350636.12,2770691.38,0.00" speed="18.06" />
	<edge id="515166729_1505012036_9402583776" from="1505012036" to="9402583776" numLanes="2" shape="350585.71,2770577.64,0.00 350584.87,2770574.65,0.00 350581.65,2770563.14,0.00" speed="18.06" />
	<edge id="48776360_655375092_655375115" from="655375092" to="655375115" numLanes="2" shape="351404.98,2770983.14,0.00 351371.99,2770994.66,0.00" speed="22.22" />
	<edge id="263217603_655375240_655375248" from="655375240" to="655375248" numLanes="2" shape="351693.94,2770585.89,0.00 351686.15,2770553.05,0.00" speed="13.89" />
	<edge id="49073297_619136884_622618165" from="619136884" to="622618165" numLanes="2" shape="352424.46,2770396.15,0.00 352410.96,2770438.73,0.00 352401.89,2770475.71,0.00 352396.13,2770505.06,0.00 352391.19,2770549.93,0.00 352388.49,2770602.16,0.00 352380.51,2770670.11,0.00" speed="18.06" />
	<edge id="49695726_631668826_631668821" from="631668826" to="631668821" numLanes="1" shape="352060.39,2770360.18,0.00 352168.33,2770348.75,0.00" speed="8.33" />
	<edge id="207614898_6225155224_2178660134" from="6225155224" to="2178660134" numLanes="2" shape="351872.37,2770162.01,0.00 351904.70,2770168.36,0.00 351925.76,2770172.27,0.00" speed="8.33" />
	<edge id="51362362_655374983_7199509892" from="655374983" to="7199509892" numLanes="2" shape="351631.37,2770331.91,0.00 351623.06,2770301.11,0.00 351618.19,2770297.34,0.00" speed="19.44" />
	<edge id="353392315_619136942_619136929" from="619136942" to="619136929" numLanes="2" shape="352385.77,2770376.98,0.00 352393.85,2770359.39,0.00" speed="13.89" />
	<edge id="594658762_655375247_655375240" from="655375247" to="655375240" numLanes="2" shape="351769.16,2770843.72,0.00 351766.77,2770834.06,0.00 351766.13,2770832.00,0.00 351760.36,2770813.45,0.00 351758.34,2770806.97,0.00 351733.95,2770728.28,0.00 351720.98,2770680.52,0.00 351693.94,2770585.89,0.00" speed="13.89" />
	<edge id="506322848_655375573_655375574" from="655375573" to="655375574" numLanes="3" shape="351780.47,2770508.43,0.00 351770.04,2770511.55,0.00 351723.48,2770526.37,0.00" speed="18.06" />
	<edge id="25715400_2730537727_1720485456" from="2730537727" to="1720485456" numLanes="1" shape="351088.17,2770563.39,0.00 351082.81,2770565.08,0.00 351012.77,2770587.28,0.00 350998.39,2770591.59,0.00" speed="8.33" />