<connections>
	<connection from="6183255_1505012053_9402530955" to="515166729_9402530955_1505012036" />
	<connection from="381733807_7702583150_2730537727" to="381733807_2730537727_7702583150" />
	<connection from="381733807_7702583150_2730537727" to="25715400_2730537727_1720485456" />
	<connection from="381733807_7702583150_2730537727" to="25715400_2730537727_280389385" />
	<connection from="515166742_2618719351_9402574783" to="515166749_9402574783_1466455178" />
	<connection from="906806093_619137055_1512685982" to="906806093_1512685982_619137061" />
	<connection from="906806093_619137055_1512685982" to="137954844_1512685982_1512685995" />
	<connection from="131473123_1446842472_1446842467" to="131473123_1446842467_3228012809" />
	<connection from="131473123_1446842472_1446842467" to="131473131_1446842467_2178660134" />
	<connection from="182334379_2528018119_631668976" to="238526531_631668976_655375573" />
	<connection from="182334379_2528018119_631668976" to="506322850_631668976_631668981" />
	<connection from="269789536_965533210_2727211119" to="269789536_2727211119_965533210" />
	<connection from="269789536_965533210_2727211119" to="198874289_2727211119_9402558758" />
	<connection from="269789536_965533210_2727211119" to="274809899_2727211119_9402530958" />
	<connection from="325213924_280389389_9402530956" to="515166733_9402530956_656416079" />
	<connection from="484988952_4777363357_655375244" to="51362430_655375244_656132414" />
	<connection from="484988952_4777363357_655375244" to="484988951_655375244_655375231" />
	<connection from="131473126_1446842502_1446842509" to="1320961817_1446842509_1446842514" />
	<connection from="263474460_5179289743_631668813" to="25715404_631668813_631669073" />
	<connection from="263474460_5179289743_631668813" to="263474460_631668813_5179289743" />
	<connection from="263474460_5179289743_631668813" to="25715404_631668813_631668990" />
	<connection from="131473136_1446842482_1446842464" to="131473133_1446842464_648173132" />
	<connection from="593847705_655375233_3086736518" to="593847705_3086736518_655375233" />
	<connection from="593847705_655375233_3086736518" to="593847701_3086736518_655375232" />
	<connection from="593847705_655375233_3086736518" to="593847704_3086736518_622618108" />
	<connection from="515166733_656416079_9402564708" to="515156319_9402564708_9402564707" />
	<connection from="515166733_656416079_9402564708" to="56723599_9402564708_9402564711" />
	<connection from="259080307_656132412_656132414" to="1068440001_656132414_11510670762" />
	<connection from="259080307_656132412_656132414" to="51362430_656132414_655375244" />
	<connection from="330804412_9402574782_1505012127" to="330804412_1505012127_9402576479" />
	<connection from="506359646_3708404967_631822171" to="506359646_631822171_3708404967" />
	<connection from="506359646_3708404967_631822171" to="506359646_631822171_631822122" />
	<connection from="51423113_656416133_665044722" to="51423113_665044722_656416133" />
	<connection from="51423113_656416133_665044722" to="52242863_665044722_3784421842" />
	<connection from="49073272_622618108_622618112" to="49073272_622618112_619137000" />
	<connection from="49073272_622618108_622618112" to="593847702_622618112_622618197" />
	<connection from="131473128_1446842490_1446842479" to="131473127_1446842479_1446842446" />
	<connection from="131473128_1446842490_1446842479" to="131473128_1446842479_1446842490" />
	<connection from="49073240_3179389657_622617671" to="593849718_622617671_3196998921" />
	<connection from="49073240_3179389657_622617671" to="49073240_622617671_3179389657" />
	<connection from="25715401_280389382_280389388" to="25715405_280389388_1926948289" />
	<connection from="25715401_280389382_280389388" to="297240250_280389388_280389384" />
	<connection from="25715401_280389382_280389388" to="25715401_280389388_280389382" />
	<connection from="1334464949_622617760_622617758" to="49073247_622617758_619136999" />
	<connection from="261898534_2081945232_1926948289" to="25715405_1926948289_280389388" />
	<connection from="261898534_2081945232_1926948289" to="25715405_1926948289_2575216314" />
	<connection from="269505244_9402558759_2747113473" to="269505244_2747113473_9402558759" />
	<connection from="269505244_9402558759_2747113473" to="269505242_2747113473_9402558756" />
	<connection from="268564474_423776328_1720485460" to="229844763_1720485460_2031882172" />
	<connection from="268564474_423776328_1720485460" to="268564474_1720485460_423776328" />
	<connection from="268564474_423776328_1720485460" to="317839331_1720485460_1720485436" />
	<connection from="268564474_423776328_1720485460" to="241811768_1720485460_9402574778" />
	<connection from="192888504_1140226515_1140228862" to="192888504_1140228862_9383263988" />
	<connection from="51289045_2664674480_6251747844" to="260882327_6251747844_656132476" />
	<connection from="51289045_2664674480_6251747844" to="51289045_6251747844_2664674489" />
	<connection from="207614894_2178660135_2178660132" to="360364149_2178660132_2178660131" />
	<connection from="207614894_2178660135_2178660132" to="131473133_2178660132_648173273" />
	<connection from="515166740_9402574781_2618719349" to="515166740_2618719349_9402574782" />
	<connection from="593844218_655375293_9631728504" to="593844218_9631728504_3208478133" />
	<connection from="515166747_9402574779_1505012123" to="515166747_1505012123_9402583775" />
	<connection from="515166742_9402574780_2618719351" to="515166742_2618719351_9402574783" />
	<connection from="1064294860_2178660138_648173087" to="771228577_648173087_7199509890" />
	<connection from="1064294860_2178660138_648173087" to="317839336_648173087_280389395" />
	<connection from="1064294860_2178660138_648173087" to="347293077_648173087_1446842515" />
	<connection from="26697218_292783128_9402558764" to="26697218_9402558764_292783128" />
	<connection from="26697218_292783128_9402558764" to="26697218_9402558764_9402558762" />
	<connection from="506322851_631669076_2690921409" to="506322851_2690921409_2877022366" />
	<connection from="51423114_2754579119_3784421842" to="51423114_3784421842_2754579119" />
	<connection from="51423114_2754579119_3784421842" to="52242863_3784421842_665044722" />
	<connection from="48794882_619136868_619136853" to="48794877_619136853_619136857" />
	<connection from="48794882_619136868_619136853" to="48794882_619136853_619136868" />
	<connection from="48794882_619136868_619136853" to="48794882_619136853_619136871" />
	<connection from="1239087512_3208478133_4554226152" to="1239087514_4554226152_656132414" />
	<connection from="269505244_2747113473_9402558759" to="269505244_9402558759_965533193" />
	<connection from="269505244_2747113473_9402558759" to="269505244_9402558759_2747113473" />
	<connection from="98562079_1140220197_656416150" to="98562080_656416150_1140220198" />
	<connection from="98562079_1140220197_656416150" to="270439718_656416150_2754579119" />
	<connection from="51423110_2618719353_9402574784" to="256186573_9402574784_9402574785" />
	<connection from="51423110_2618719353_9402574784" to="515166752_9402574784_423776327" />
	<connection from="330804416_2051219340_9402574782" to="330804416_9402574782_2051219340" />
	<connection from="330804416_2051219340_9402574782" to="330804412_9402574782_1505012127" />
	<connection from="330804416_2051219340_9402574782" to="515166751_9402574782_9402574783" />
	<connection from="131473129_1446842503_2031882172" to="229844763_2031882172_1720485444" />
	<connection from="131473129_1446842503_2031882172" to="229844763_2031882172_1720485460" />
	<connection from="131473129_1446842503_2031882172" to="131473129_2031882172_1446842503" />
	<connection from="300077497_655374960_2528018119" to="300077497_2528018119_655374960" />
	<connection from="300077497_655374960_2528018119" to="182334379_2528018119_631668976" />
	<connection from="300077497_655374960_2528018119" to="245644140_2528018119_655375236" />
	<connection from="196961215_631822119_631821938" to="196961215_631821938_623980094" />
	<connection from="196961215_631822119_631821938" to="245579206_631821938_631821979" />
	<connection from="668037878_631668302_1512685967" to="910567292_1512685967_622618165" />
	<connection from="270765870_9402558756_9402558757" to="270765870_9402558757_9402558756" />
	<connection from="270765870_9402558756_9402558757" to="198874289_9402558757_9402558758" />
	<connection from="270765870_9402558756_9402558757" to="198874292_9402558757_9383240485" />
	<connection from="1320961817_269201135_1446842468" to="1320961817_1446842468_1446842491" />
	<connection from="1320961817_269201135_1446842468" to="131473109_1446842468_1446842497" />
	<connection from="515156309_9382125572_656416081" to="515156309_656416081_9402568677" />
	<connection from="49795875_656416225_9402574778" to="229844765_9402574778_1505012119" />
	<connection from="49795875_656416225_9402574778" to="241811768_9402574778_1720485460" />
	<connection from="1334905225_655375239_655375228" to="1334905225_655375228_655375239" />
	<connection from="1334905225_655375239_655375228" to="1334905224_655375228_655375240" />
	<connection from="313684476_3196998937_3196998922" to="593849718_3196998922_622617973" />
	<connection from="1334905224_655375240_655375228" to="1334905225_655375228_655375239" />
	<connection from="1334905224_655375240_655375228" to="1334905224_655375228_655375240" />
	<connection from="159980284_2730537789_1720485456" to="198874288_1720485456_1720485436" />
	<connection from="159980284_2730537789_1720485456" to="25715400_1720485456_2730537727" />
	<connection from="159980284_2730537789_1720485456" to="159980284_1720485456_2730537789" />
	<connection from="159980284_2730537789_1720485456" to="269789536_1720485456_965533210" />
	<connection from="241811768_1720485460_9402574778" to="229844765_9402574778_1505012119" />
	<connection from="241811768_1720485460_9402574778" to="241811768_9402574778_1720485460" />
	<connection from="241811768_1720485460_9402574778" to="515166745_9402574778_9402574779" />
	<connection from="506322836_656416209_9402564706" to="318254709_9402564706_3571770794" />
	<connection from="506322836_656416209_9402564706" to="318254711_9402564706_9402564711" />
	<connection from="910567294_619136881_619136899" to="252657376_619136899_619136942" />
	<connection from="51362429_655375232_655375231" to="49073226_655375231_3431431575" />
	<connection from="51362429_655375232_655375231" to="51362429_655375231_655375232" />
	<connection from="49710824_631821979_631821982" to="311868386_631821982_631821974" />
	<connection from="267609448_2730537748_2730537724" to="297240250_2730537724_2081945250" />
	<connection from="665079918_6225155222_1973482483" to="186602412_1973482483_1973482489" />
	<connection from="665079918_6225155222_1973482483" to="347293077_1973482483_631669439" />
	<connection from="665079918_6225155222_1973482483" to="347293077_1973482483_2178660139" />
	<connection from="49073272_3208478121_619136942" to="353392316_619136942_2444664369" />
	<connection from="49073272_3208478121_619136942" to="353392315_619136942_619136929" />
	<connection from="49695736_655375345_2528018119" to="300077497_2528018119_655374960" />
	<connection from="49695736_655375345_2528018119" to="182334379_2528018119_631668976" />
	<connection from="260882327_656132484_656132495" to="260882327_656132495_656132484" />
	<connection from="313684474_3196998921_3196998936" to="303647014_3196998936_631821941" />
	<connection from="593847701_3086736518_655375232" to="51362429_655375232_655375231" />
	<connection from="593847701_3086736518_655375232" to="593847701_655375232_3086736518" />
	<connection from="311868391_631821974_631821972" to="49710819_631821972_631821939" />
	<connection from="311868391_631821974_631821972" to="311868391_631821972_631821974" />
	<connection from="311868391_631821974_631821972" to="257396390_631821972_631822120" />
	<connection from="268564473_631821694_623980147" to="241518650_623980147_623980152" />
	<connection from="268564473_631821694_623980147" to="241518668_623980147_4777363357" />
	<connection from="30620492_7199509890_1926948337" to="30620492_1926948337_655375578" />
	<connection from="30620492_7199509890_1926948337" to="182336886_1926948337_1926948313" />
	<connection from="593844216_9631736224_656132411" to="51392846_656132411_656132412" />
	<connection from="593844216_9631736224_656132411" to="1068439995_656132411_656132416" />
	<connection from="515166733_9402530956_656416079" to="515166733_656416079_9402564708" />
	<connection from="198874292_9402558757_9383240485" to="198874292_9383240485_9383240484" />
	<connection from="268564474_1720485460_423776328" to="268564474_423776328_9658979833" />
	<connection from="268564474_1720485460_423776328" to="268564474_423776328_1720485460" />
	<connection from="405980655_2013717671_619136931" to="198735196_619136931_619136941" />
	<connection from="405980655_2013717671_619136931" to="244450473_619136931_3179725582" />
	<connection from="244456578_1505012094_656416184" to="244456578_656416184_9402564709" />
	<connection from="506322857_619137006_3110835029" to="506322857_3110835029_9382067107" />
	<connection from="506322836_9402558756_6229887848" to="665599322_6229887848_2034292613" />
	<connection from="506322836_9402558756_6229887848" to="506322836_6229887848_656416209" />
	<connection from="506322846_2038168688_1973482489" to="506322846_1973482489_631668981" />
	<connection from="506322846_2038168688_1973482489" to="186602412_1973482489_1973482483" />
	<connection from="318254711_9402564706_9402564711" to="325213923_9402564711_292783119" />
	<connection from="318254711_9402564706_9402564711" to="325213930_9402564711_9402564705" />
	<connection from="238526530_9383263988_655375242" to="241518667_655375242_655375241" />
	<connection from="238526530_9383263988_655375242" to="297213521_655375242_655375249" />
	<connection from="1064294860_648173084_1446842498" to="1064294860_1446842498_2178660135" />
	<connection from="274809899_2727211119_9402530958" to="274809899_9402530958_2727211119" />
	<connection from="274809899_2727211119_9402530958" to="274809899_9402530958_9402530957" />
	<connection from="506359646_631822171_3708404967" to="506359646_3708404967_631822171" />
	<connection from="506359646_631822171_3708404967" to="506359646_3708404967_631821706" />
	<connection from="238526529_631668981_631669076" to="506322851_631669076_2690921409" />
	<connection from="238526529_631668981_631669076" to="506322852_631669076_5372642442" />
	<connection from="131473109_1446842468_1446842497" to="131473109_1446842497_1446842468" />
	<connection from="131473109_1446842468_1446842497" to="131473109_1446842497_1446842503" />
	<connection from="325213923_292783119_9382125572" to="515156309_9382125572_656416081" />
	<connection from="49710810_631821939_631821941" to="303647014_631821941_4266714993" />
	<connection from="506322835_9402564705_9402564710" to="6183255_9402564710_1505012053" />
	<connection from="506322835_9402564705_9402564710" to="52242862_9402564710_9402564708" />
	<connection from="274809899_9402530958_2727211119" to="269789536_2727211119_965533210" />
	<connection from="274809899_9402530958_2727211119" to="198874289_2727211119_9402558758" />
	<connection from="274809899_9402530958_2727211119" to="274809899_2727211119_9402530958" />
	<connection from="260882327_656132484_656132476" to="545977624_656132476_656132475" />
	<connection from="260882327_656132484_656132476" to="260882327_656132476_6251747844" />
	<connection from="260882327_656132484_656132476" to="260882327_656132476_656132484" />
	<connection from="244450513_655375266_655375223" to="244450513_655375223_655374983" />
	<connection from="244450513_655375266_655375223" to="1132433052_655375223_655375224" />
	<connection from="594658761_655375401_3086736522" to="594658758_3086736522_655375489" />
	<connection from="594658761_655375401_3086736522" to="594658757_3086736522_3086736520" />
	<connection from="49073226_655375231_3431431575" to="49073226_3431431575_623980152" />
	<connection from="49073226_655375231_3431431575" to="336063376_3431431575_3431431576" />
	<connection from="196961379_2527532992_2461138530" to="196961379_2461138530_631822001" />
	<connection from="131473109_1446842497_1446842468" to="1320961817_1446842468_1446842491" />
	<connection from="131473109_1446842497_1446842468" to="131473109_1446842468_1446842497" />
	<connection from="251277094_2575216310_2575216319" to="131473130_2575216319_1446842505" />
	<connection from="251277094_2575216310_2575216319" to="131473130_2575216319_1446842516" />
	<connection from="413949761_280389395_1446842500" to="413949761_1446842500_1446842473" />
	<connection from="515166731_9402530955_9402530954" to="25715402_9402530954_9402530959" />
	<connection from="515166731_9402530955_9402530954" to="274809896_9402530954_244380192" />
	<connection from="506359646_7578670426_631822122" to="506359646_631822122_631822171" />
	<connection from="506359646_7578670426_631822122" to="506359646_631822122_7578670426" />
	<connection from="48794887_619136881_619136884" to="49073297_619136884_622618165" />
	<connection from="668037874_619136900_619136880" to="506322856_619136880_619136931" />
	<connection from="26697218_9402558764_9402558762" to="26697218_9402558762_9402558764" />
	<connection from="26697218_9402558764_9402558762" to="26697218_9402558762_9402558765" />
	<connection from="26697218_9402558764_9402558762" to="905113648_9402558762_656416099" />
	<connection from="26697218_9402558764_9402558762" to="905113646_9402558762_292783107" />
	<connection from="131473135_1446842493_1446842496" to="131473123_1446842496_1446842472" />
	<connection from="51362368_655375108_655375105" to="51362368_655375105_655375108" />
	<connection from="51362368_655375108_655375105" to="51362403_655375105_655375088" />
	<connection from="515166751_9402574782_9402574783" to="515166754_9402574783_9402574784" />
	<connection from="515166751_9402574782_9402574783" to="515166749_9402574783_1466455178" />
	<connection from="594658757_3086736522_3086736520" to="594658757_3086736520_3086736522" />
	<connection from="594658757_3086736522_3086736520" to="1334904387_3086736520_655375345" />
	<connection from="594658757_3086736522_3086736520" to="1068440008_3086736520_9631728500" />
	<connection from="49795875_9402574785_656416225" to="49795875_656416225_9402574778" />
	<connection from="312725560_656416041_656416051" to="312725560_656416051_656416041" />
	<connection from="312725560_656416041_656416051" to="303647015_656416051_656416103" />
	<connection from="260882327_6251747844_656132476" to="545977624_656132476_656132475" />
	<connection from="260882327_6251747844_656132476" to="260882327_656132476_6251747844" />
	<connection from="260882327_6251747844_656132476" to="260882327_656132476_656132484" />
	<connection from="49710819_631821939_631821969" to="49710819_631821969_631821939" />
	<connection from="131473123_1446842496_1446842472" to="440965024_1446842472_6225155245" />
	<connection from="131473123_1446842496_1446842472" to="131473123_1446842472_1446842467" />
	<connection from="593852345_622618144_623980090" to="196961378_623980090_623980094" />
	<connection from="593852345_622618144_623980090" to="196961379_623980090_631821979" />
	<connection from="196961379_2461138530_631822001" to="196961379_631822001_631821998" />
	<connection from="260881641_2664674480_655375288" to="244450512_655375288_3208478128" />
	<connection from="49710819_631821939_631821972" to="49710819_631821972_631821939" />
	<connection from="49710819_631821939_631821972" to="311868391_631821972_631821974" />
	<connection from="49710819_631821939_631821972" to="257396390_631821972_631822120" />
	<connection from="198874289_2727211119_9402558758" to="198874289_9402558758_9402558757" />
	<connection from="198874289_2727211119_9402558758" to="198874289_9402558758_2727211119" />
	<connection from="35274074_655375238_655375573" to="35274074_655375573_655375238" />
	<connection from="35274074_655375238_655375573" to="506322849_655375573_2038168688" />
	<connection from="35274074_655375238_655375573" to="506322848_655375573_655375574" />
	<connection from="49073247_622617758_619136999" to="360018417_619136999_3208478121" />
	<connection from="49073247_622617758_619136999" to="196961377_619136999_3091610524" />
	<connection from="515166738_1505012062_9402530957" to="274809899_9402530957_9402530958" />
	<connection from="515166738_1505012062_9402530957" to="330745380_9402530957_656416212" />
	<connection from="515166729_1505012036_9402583776" to="515166735_9402583776_1505012111" />
	<connection from="515166729_1505012036_9402583776" to="515166736_9402583776_9402583777" />
	<connection from="48776360_655375092_655375115" to="51362369_655375115_656416387" />
	<connection from="263217603_655375240_655375248" to="263217603_655375248_9383263990" />
	<connection from="49073297_619136884_622618165" to="910567291_622618165_631822018" />
	<connection from="49695726_631668826_631668821" to="420578931_631668821_2690921409" />
	<connection from="49695726_631668826_631668821" to="49695726_631668821_631668826" />
	<connection from="207614898_6225155224_2178660134" to="131473131_2178660134_631669439" />
	<connection from="51362362_655374983_7199509892" to="771228578_7199509892_280389395" />
	<connection from="353392315_619136942_619136929" to="506322857_619136929_631668926" />
	<connection from="594658762_655375247_655375240" to="1334905223_655375240_655375241" />
	<connection from="594658762_655375247_655375240" to="1334905224_655375240_655375228" />
	<connection from="594658762_655375247_655375240" to="263217603_655375240_655375248" />
	<connection from="506322848_655375573_655375574" to="506322848_655375574_9383263991" />
	<connection from="25715400_2730537727_1720485456" to="198874288_1720485456_1720485436" />
	<connection from="25715400_2730537727_1720485456" to="25715400_1720485456_2730537727" />
	<connection from="25715400_2730537727_1720485456" to="159980284_1720485456_2730537789" />
	<connection from="25715400_2730537727_1720485456" to="269789536_1720485456_965533210" />
	<connection from="515156319_9402564708_9402564707" to="229885657_9402564707_9402564706" />
	<connection from="515156319_9402564708_9402564707" to="289004416_9402564707_2034292619" />
	<connection from="244450513_655375223_655374983" to="51362362_655374983_7199509892" />
	<connection from="300077497_655374960_655375238" to="300077497_655375238_655374960" />
	<connection from="300077497_655374960_655375238" to="300077497_655375238_655375239" />
	<connection from="300077497_655374960_655375238" to="35274074_655375238_655375573" />
	<connection from="251277093_2575216318_2575216316" to="131473142_2575216316_2575216309" />
	<connection from="251277093_2575216318_2575216316" to="251277093_2575216316_2575216318" />
	<connection from="1320961817_1446842468_1446842491" to="1320961817_1446842491_1446842509" />
	<connection from="1320961817_1446842468_1446842491" to="131473127_1446842491_1446842479" />
	<connection from="268564474_423776328_9658979833" to="268564474_9658979833_423776328" />
	<connection from="268564474_423776328_9658979833" to="1320961816_9658979833_1446842514" />
	<connection from="269789739_1926948285_9402583774" to="515166739_9402583774_9402583775" />
	<connection from="269789739_1926948285_9402583774" to="515166738_9402583774_1505012062" />
	<connection from="269789739_1926948285_9402583774" to="269789739_9402583774_1926948285" />
	<connection from="198725737_9402576479_9402576484" to="198725737_9402576484_9402576483" />
	<connection from="420861789_2575216318_2575216315" to="251277094_2575216315_2575216310" />
	<connection from="51289045_6251747844_2664674489" to="51289045_2664674489_656132485" />
	<connection from="1239087513_11510670762_9631736224" to="51289045_9631736224_655375296" />
	<connection from="1239087513_11510670762_9631736224" to="593844216_9631736224_656132411" />
	<connection from="905113648_656416255_656416099" to="905113648_656416099_656416255" />
	<connection from="905113648_656416255_656416099" to="905113648_656416099_9402558762" />
	<connection from="51362381_655375224_655375225" to="51362394_655375225_655375228" />
	<connection from="1068440008_3086736520_9631728500" to="1334904388_9631728500_3086736519" />
	<connection from="1068440008_3086736520_9631728500" to="1068440008_9631728500_3086736520" />
	<connection from="51362367_655375094_655375088" to="51362403_655375088_655375105" />
	<connection from="51362367_655375094_655375088" to="51362366_655375088_655375092" />
	<connection from="131473142_1446842514_2575216316" to="131473142_2575216316_2575216309" />
	<connection from="131473142_1446842514_2575216316" to="251277093_2575216316_2575216318" />
	<connection from="303647015_655375246_656416024" to="303647015_656416024_656416051" />
	<connection from="303647015_655375246_656416024" to="312725561_656416024_656416019" />
	<connection from="545977623_656132475_656132411" to="545977623_656132411_656132475" />
	<connection from="545977623_656132475_656132411" to="51392846_656132411_656132412" />
	<connection from="545977623_656132475_656132411" to="1068439995_656132411_656132416" />
	<connection from="25715404_631668990_631668813" to="25715404_631668813_631669073" />
	<connection from="25715404_631668990_631668813" to="263474460_631668813_5179289743" />
	<connection from="25715404_631668990_631668813" to="25715404_631668813_631668990" />
	<connection from="506322851_2690921409_2877022366" to="506322853_2877022366_619136929" />
	<connection from="506322856_619136880_619136931" to="244450473_619136931_3179725582" />
	<connection from="905113646_12463368425_9402602121" to="1347363384_9402602121_9402602123" />
	<connection from="905113646_12463368425_9402602121" to="905113646_9402602121_12463368425" />
	<connection from="905113646_12463368425_9402602121" to="360851262_9402602121_655375247" />
	<connection from="269788957_9382125571_3571770795" to="269788957_3571770795_2749314012" />
	<connection from="269788957_9382125571_3571770795" to="269788957_3571770795_9382125571" />
	<connection from="49073226_3431431575_623980152" to="288878927_623980152_623980090" />
	<connection from="49073226_3431431575_623980152" to="288878926_623980152_622618230" />
	<connection from="318254709_3571770794_9382125571" to="269788957_9382125571_3571770795" />
	<connection from="318254709_3571770794_9382125571" to="384694135_9382125571_656416206" />
	<connection from="51362361_655374976_655374980" to="260152357_655374980_654299140" />
	<connection from="51362361_655374976_655374980" to="1132431808_655374980_6251651467" />
	<connection from="267609453_2730537789_2730537773" to="267609455_2730537773_2730537756" />
	<connection from="267609453_2730537789_2730537773" to="267609453_2730537773_2730537789" />
	<connection from="267609453_2730537789_2730537773" to="267609455_2730537773_2700242062" />
	<connection from="274809899_9402530957_9402530958" to="274809899_9402530958_2727211119" />
	<connection from="274809899_9402530957_9402530958" to="274809899_9402530958_9402530957" />
	<connection from="49073264_622618015_3086736515" to="49073264_3086736515_622618015" />
	<connection from="49073264_622618015_3086736515" to="593852344_3086736515_622618020" />
	<connection from="192888504_1140228862_9383263988" to="238526530_9383263988_655375242" />
	<connection from="252657367_619136899_619136900" to="668037874_619136900_619136880" />
	<connection from="593844221_655375293_631668971" to="1068440005_631668971_3086736520" />
	<connection from="593844221_655375293_631668971" to="1334904386_631668971_655375489" />
	<connection from="506322857_631668926_631669437" to="25715404_631669437_2013717671" />
	<connection from="506322857_631668926_631669437" to="25715404_631669437_631668990" />
	<connection from="506322857_631668926_631669437" to="506322857_631669437_619137006" />
	<connection from="264551742_9402568666_3196999070" to="264551742_3196999070_656416323" />
	<connection from="264551742_9402568666_3196999070" to="313684472_3196999070_3196999082" />
	<connection from="381733807_7702583150_2730537756" to="381733807_2730537756_7702583150" />
	<connection from="381733807_7702583150_2730537756" to="267609455_2730537756_2730537773" />
	<connection from="360364149_2178660132_2178660131" to="207614898_2178660131_2178660133" />
	<connection from="360364149_2178660132_2178660131" to="1035957648_2178660131_1446842482" />
	<connection from="25715404_631668813_631669073" to="413955657_631669073_631668984" />
	<connection from="25715404_631668813_631669073" to="25715404_631669073_631668813" />
	<connection from="25715404_631668813_631669073" to="49695741_631669073_631668923" />
	<connection from="241518668_623980147_4777363357" to="241518668_4777363357_655375231" />
	<connection from="241518668_623980147_4777363357" to="484988952_4777363357_655375244" />
	<connection from="515156296_9402568676_292783108" to="515156296_292783108_9382125569" />
	<connection from="347293077_1973482483_631669439" to="347293077_631669439_631668984" />
	<connection from="347293077_1973482483_631669439" to="347293077_631669439_1973482483" />
	<connection from="506322836_6229887848_656416209" to="506322836_656416209_9402564706" />
	<connection from="1320961816_9658979833_1446842514" to="1320961816_1446842514_9658979833" />
	<connection from="1320961816_9658979833_1446842514" to="297240250_1446842514_280389388" />
	<connection from="1320961816_9658979833_1446842514" to="131473142_1446842514_2575216316" />
	<connection from="269505242_9402558756_2747113473" to="269505244_2747113473_9402558759" />
	<connection from="269505242_9402558756_2747113473" to="269505242_2747113473_9402558756" />
	<connection from="593847705_3086736518_655375233" to="593847705_655375233_3086736518" />
	<connection from="593847705_3086736518_655375233" to="593847703_655375233_655375236" />
	<connection from="244450512_6256180031_655375245" to="51362431_655375245_655375246" />