<?xml version="1.0" ?>
<!-- Generated by MOSAIC scenario-convert 18.0 -->
<routes>
	<vType id="default" length="7.5" maxSpeed="50" minGap="2.0" carFollowModel="Krauss" accel="0.80" decel="4.5" sigma="0.5" tau="1"/>
	<route id="1" edges="506322854_2444664369_5372642442 288135627_5372642442_631668976 506322850_631668976_631668981 288135628_631668981_2013717679 1068234502_2013717679_631668984 347293077_631668984_631669439 347293077_631669439_1973482483 347293077_1973482483_2178660139 347293077_2178660139_1446842515 347293077_1446842515_648173087 317839336_648173087_280389395 25715405_280389395_1446842516 25715405_1446842516_2575216314 25715405_2575216314_1926948289 25715405_1926948289_280389388 25715401_280389388_280389382 25715401_280389382_1720485436 317839331_1720485436_1720485460" />
	<route id="2" edges="506322854_2444664369_5372642442 288135627_5372642442_631668976 238526531_631668976_655375573 506322848_655375573_655375574 506322848_655375574_9383263991 506322845_9383263991_9383263990 506322840_9383263990_655375241 241518671_655375241_1140228864 241518671_1140228864_9383263987 238526526_9383263987_1140226550 238526526_1140226550_9383240479 909299062_9383240479_656416097 909299062_656416097_9383240482 905113648_9383240482_656416255 905113648_656416255_656416099 905113648_656416099_9402558762 905113648_9402558762_656416099 905113648_656416099_656416255 905113648_656416255_9383240482 909299063_9383240482_9383240484 159980284_9383240484_656416093 159980284_656416093_2730537789 159980284_2730537789_1720485456 198874288_1720485456_1720485436 317839331_1720485436_1720485460" />
	<route id="3" edges="506322854_2444664369_5372642442 288135627_5372642442_631668976 238526531_631668976_655375573 506322848_655375573_655375574 506322848_655375574_9383263991 506322845_9383263991_9383263990 506322840_9383263990_655375241 241518671_655375241_1140228864 241518671_1140228864_9383263987 238526526_9383263987_1140226550 238526526_1140226550_9383240479 909299062_9383240479_656416097 909299062_656416097_9383240482 506322837_9383240482_965533172 506322837_965533172_9402558756 506322836_9402558756_6229887848 665599322_6229887848_2034292613 192888505_2034292613_2034292619 289004416_2034292619_965533187 289004416_965533187_9402558757 198874292_9402558757_9383240485 198874292_9383240485_9383240484 159980284_9383240484_656416093 159980284_656416093_2730537789 159980284_2730537789_1720485456 198874288_1720485456_1720485436 317839331_1720485436_1720485460" />
</routes>